* NGSPICE file created from sky130_be_ip__lsxo.ext - technology: sky130A

.subckt sky130_fd_pr__res_xhigh_po_0p35_WHP78W a_131_6584# a_n367_6584# a_n1031_n7016#
+ a_961_n7016# a_n201_n7016# a_n699_n7016# a_n865_6584# a_463_n7016# a_463_6584# a_n699_6584#
+ a_n1197_6584# a_297_6584# a_1127_n7016# a_n533_n7016# a_961_6584# a_n35_n7016# a_795_n7016#
+ a_795_6584# a_n201_6584# a_629_6584# a_297_n7016# a_629_n7016# a_n35_6584# a_n865_n7016#
+ a_n1197_n7016# a_n367_n7016# a_n533_6584# a_n1327_n7146# a_131_n7016# a_n1031_6584#
+ a_1127_6584#
X0 a_n699_6584# a_n699_n7016# a_n1327_n7146# sky130_fd_pr__res_xhigh_po_0p35 l=66
X1 a_131_6584# a_131_n7016# a_n1327_n7146# sky130_fd_pr__res_xhigh_po_0p35 l=66
X2 a_n1197_6584# a_n1197_n7016# a_n1327_n7146# sky130_fd_pr__res_xhigh_po_0p35 l=66
X3 a_n533_6584# a_n533_n7016# a_n1327_n7146# sky130_fd_pr__res_xhigh_po_0p35 l=66
X4 a_1127_6584# a_1127_n7016# a_n1327_n7146# sky130_fd_pr__res_xhigh_po_0p35 l=66
X5 a_463_6584# a_463_n7016# a_n1327_n7146# sky130_fd_pr__res_xhigh_po_0p35 l=66
X6 a_629_6584# a_629_n7016# a_n1327_n7146# sky130_fd_pr__res_xhigh_po_0p35 l=66
X7 a_n1031_6584# a_n1031_n7016# a_n1327_n7146# sky130_fd_pr__res_xhigh_po_0p35 l=66
X8 a_n35_6584# a_n35_n7016# a_n1327_n7146# sky130_fd_pr__res_xhigh_po_0p35 l=66
X9 a_961_6584# a_961_n7016# a_n1327_n7146# sky130_fd_pr__res_xhigh_po_0p35 l=66
X10 a_n367_6584# a_n367_n7016# a_n1327_n7146# sky130_fd_pr__res_xhigh_po_0p35 l=66
X11 a_297_6584# a_297_n7016# a_n1327_n7146# sky130_fd_pr__res_xhigh_po_0p35 l=66
X12 a_n865_6584# a_n865_n7016# a_n1327_n7146# sky130_fd_pr__res_xhigh_po_0p35 l=66
X13 a_795_6584# a_795_n7016# a_n1327_n7146# sky130_fd_pr__res_xhigh_po_0p35 l=66
X14 a_n201_6584# a_n201_n7016# a_n1327_n7146# sky130_fd_pr__res_xhigh_po_0p35 l=66
.ends

.subckt sky130_fd_pr__res_xhigh_po_0p35_M35ED8 a_1210_n8616# a_546_8184# a_878_n8616#
+ a_n118_n8616# a_1210_8184# a_n450_8184# a_n1944_8184# a_n1778_n8616# a_1044_8184#
+ a_n284_8184# a_n948_n8616# a_n1778_8184# a_878_8184# a_380_n8616# a_1542_n8616#
+ a_712_n8616# a_2040_8184# a_n1280_n8616# a_2040_n8616# a_1542_8184# a_n118_8184#
+ a_n1612_n8616# a_n450_n8616# a_1044_n8616# a_214_n8616# a_n782_8184# a_1376_8184#
+ a_n1280_8184# a_n2110_n8616# a_380_8184# a_n1114_n8616# a_n616_8184# a_1874_n8616#
+ a_n1114_8184# a_48_n8616# a_214_8184# a_1874_8184# a_n1944_n8616# a_1376_n8616#
+ a_n782_n8616# a_546_n8616# a_n2110_8184# a_1708_n8616# a_1708_8184# a_48_8184# a_n1612_8184#
+ a_n1446_n8616# a_n2240_n8746# a_712_8184# a_n284_n8616# a_n948_8184# a_n616_n8616#
+ a_n1446_8184#
X0 a_n616_8184# a_n616_n8616# a_n2240_n8746# sky130_fd_pr__res_xhigh_po_0p35 l=82
X1 a_1044_8184# a_1044_n8616# a_n2240_n8746# sky130_fd_pr__res_xhigh_po_0p35 l=82
X2 a_546_8184# a_546_n8616# a_n2240_n8746# sky130_fd_pr__res_xhigh_po_0p35 l=82
X3 a_380_8184# a_380_n8616# a_n2240_n8746# sky130_fd_pr__res_xhigh_po_0p35 l=82
X4 a_n1114_8184# a_n1114_n8616# a_n2240_n8746# sky130_fd_pr__res_xhigh_po_0p35 l=82
X5 a_1708_8184# a_1708_n8616# a_n2240_n8746# sky130_fd_pr__res_xhigh_po_0p35 l=82
X6 a_1542_8184# a_1542_n8616# a_n2240_n8746# sky130_fd_pr__res_xhigh_po_0p35 l=82
X7 a_2040_8184# a_2040_n8616# a_n2240_n8746# sky130_fd_pr__res_xhigh_po_0p35 l=82
X8 a_n450_8184# a_n450_n8616# a_n2240_n8746# sky130_fd_pr__res_xhigh_po_0p35 l=82
X9 a_n1612_8184# a_n1612_n8616# a_n2240_n8746# sky130_fd_pr__res_xhigh_po_0p35 l=82
X10 a_n284_8184# a_n284_n8616# a_n2240_n8746# sky130_fd_pr__res_xhigh_po_0p35 l=82
X11 a_48_8184# a_48_n8616# a_n2240_n8746# sky130_fd_pr__res_xhigh_po_0p35 l=82
X12 a_n948_8184# a_n948_n8616# a_n2240_n8746# sky130_fd_pr__res_xhigh_po_0p35 l=82
X13 a_n782_8184# a_n782_n8616# a_n2240_n8746# sky130_fd_pr__res_xhigh_po_0p35 l=82
X14 a_1376_8184# a_1376_n8616# a_n2240_n8746# sky130_fd_pr__res_xhigh_po_0p35 l=82
X15 a_878_8184# a_878_n8616# a_n2240_n8746# sky130_fd_pr__res_xhigh_po_0p35 l=82
X16 a_n1446_8184# a_n1446_n8616# a_n2240_n8746# sky130_fd_pr__res_xhigh_po_0p35 l=82
X17 a_n2110_8184# a_n2110_n8616# a_n2240_n8746# sky130_fd_pr__res_xhigh_po_0p35 l=82
X18 a_1874_8184# a_1874_n8616# a_n2240_n8746# sky130_fd_pr__res_xhigh_po_0p35 l=82
X19 a_n1944_8184# a_n1944_n8616# a_n2240_n8746# sky130_fd_pr__res_xhigh_po_0p35 l=82
X20 a_214_8184# a_214_n8616# a_n2240_n8746# sky130_fd_pr__res_xhigh_po_0p35 l=82
X21 a_n1280_8184# a_n1280_n8616# a_n2240_n8746# sky130_fd_pr__res_xhigh_po_0p35 l=82
X22 a_1210_8184# a_1210_n8616# a_n2240_n8746# sky130_fd_pr__res_xhigh_po_0p35 l=82
X23 a_712_8184# a_712_n8616# a_n2240_n8746# sky130_fd_pr__res_xhigh_po_0p35 l=82
X24 a_n118_8184# a_n118_n8616# a_n2240_n8746# sky130_fd_pr__res_xhigh_po_0p35 l=82
X25 a_n1778_8184# a_n1778_n8616# a_n2240_n8746# sky130_fd_pr__res_xhigh_po_0p35 l=82
.ends

.subckt sky130_fd_sc_hd__buf_1 A VGND VNB VPB VPWR X
X0 VPWR A a_27_47# VPB sky130_fd_pr__pfet_01v8_hvt ad=0.11455 pd=1.08 as=0.2054 ps=2.1 w=0.79 l=0.15
X1 X a_27_47# VGND VNB sky130_fd_pr__nfet_01v8 ad=0.1352 pd=1.56 as=0.0754 ps=0.81 w=0.52 l=0.15
X2 X a_27_47# VPWR VPB sky130_fd_pr__pfet_01v8_hvt ad=0.2054 pd=2.1 as=0.11455 ps=1.08 w=0.79 l=0.15
X3 VGND A a_27_47# VNB sky130_fd_pr__nfet_01v8 ad=0.0754 pd=0.81 as=0.1352 ps=1.56 w=0.52 l=0.15
.ends

.subckt sky130_fd_pr__res_xhigh_po_0p35_VTNT3C a_n118_7484# a_214_n7916# a_48_n7916#
+ a_214_7484# a_n414_n8046# a_48_7484# a_n284_n7916# a_n118_n7916# a_n284_7484#
X0 a_n284_7484# a_n284_n7916# a_n414_n8046# sky130_fd_pr__res_xhigh_po_0p35 l=75
X1 a_48_7484# a_48_n7916# a_n414_n8046# sky130_fd_pr__res_xhigh_po_0p35 l=75
X2 a_214_7484# a_214_n7916# a_n414_n8046# sky130_fd_pr__res_xhigh_po_0p35 l=75
X3 a_n118_7484# a_n118_n7916# a_n414_n8046# sky130_fd_pr__res_xhigh_po_0p35 l=75
.ends

.subckt sky130_fd_pr__diode_pw2nd_05v5_FT76RJ a_n147_n147# a_n45_n45#
X0 a_n147_n147# a_n45_n45# sky130_fd_pr__diode_pw2nd_05v5 perim=1.8e+06 area=2.025e+11
.ends

.subckt sky130_fd_pr__nfet_01v8_LHQHT5 a_n29_n400# a_887_n400# a_429_n400# a_n887_n488#
+ a_n1047_n574# a_n429_n488# a_487_n488# a_n945_n400# a_29_n488# a_n487_n400#
X0 a_n487_n400# a_n887_n488# a_n945_n400# a_n1047_n574# sky130_fd_pr__nfet_01v8 ad=0.58 pd=4.29 as=1.16 ps=8.58 w=4 l=2
X1 a_n29_n400# a_n429_n488# a_n487_n400# a_n1047_n574# sky130_fd_pr__nfet_01v8 ad=0.58 pd=4.29 as=0.58 ps=4.29 w=4 l=2
X2 a_429_n400# a_29_n488# a_n29_n400# a_n1047_n574# sky130_fd_pr__nfet_01v8 ad=0.58 pd=4.29 as=0.58 ps=4.29 w=4 l=2
X3 a_887_n400# a_487_n488# a_429_n400# a_n1047_n574# sky130_fd_pr__nfet_01v8 ad=1.16 pd=8.58 as=0.58 ps=4.29 w=4 l=2
.ends

.subckt sky130_fd_pr__nfet_01v8_69TQ3K a_n260_n274# a_100_n100# a_n158_n100# a_n100_n188#
X0 a_100_n100# a_n100_n188# a_n158_n100# a_n260_n274# sky130_fd_pr__nfet_01v8 ad=0.29 pd=2.58 as=0.29 ps=2.58 w=1 l=1
.ends

.subckt sky130_fd_pr__pfet_01v8_3HMWVM w_n296_n319# a_n100_n197# a_100_n100# a_n158_n100#
X0 a_100_n100# a_n100_n197# a_n158_n100# w_n296_n319# sky130_fd_pr__pfet_01v8 ad=0.29 pd=2.58 as=0.29 ps=2.58 w=1 l=1
.ends

.subckt sky130_fd_pr__nfet_g5v0d10v5_9YEQ2B a_29_n388# a_n129_n388# a_n321_n522# a_n29_n300#
+ a_n187_n300# a_129_n300#
X0 a_129_n300# a_29_n388# a_n29_n300# a_n321_n522# sky130_fd_pr__nfet_g5v0d10v5 ad=0.87 pd=6.58 as=0.435 ps=3.29 w=3 l=0.5
X1 a_n29_n300# a_n129_n388# a_n187_n300# a_n321_n522# sky130_fd_pr__nfet_g5v0d10v5 ad=0.435 pd=3.29 as=0.87 ps=6.58 w=3 l=0.5
.ends

.subckt sky130_fd_pr__pfet_g5v0d10v5_VHBZVD a_n400_n197# a_400_n100# w_n658_n397#
+ a_n458_n100#
X0 a_400_n100# a_n400_n197# a_n458_n100# w_n658_n397# sky130_fd_pr__pfet_g5v0d10v5 ad=0.29 pd=2.58 as=0.29 ps=2.58 w=1 l=4
.ends

.subckt level_shift dvdd dvss in in_b out_b out dw_2668_n1758# avss avdd
XXM1 dvss in_b dvss in sky130_fd_pr__nfet_01v8_69TQ3K
XXM2 dvdd in dvdd in_b sky130_fd_pr__pfet_01v8_3HMWVM
XXM3 in in avss out_b avss avss sky130_fd_pr__nfet_g5v0d10v5_9YEQ2B
XXM4 in_b in_b avss out avss avss sky130_fd_pr__nfet_g5v0d10v5_9YEQ2B
XXM5 out avdd avdd out_b sky130_fd_pr__pfet_g5v0d10v5_VHBZVD
XXM6 out_b out avdd avdd sky130_fd_pr__pfet_g5v0d10v5_VHBZVD
.ends

.subckt sky130_fd_pr__nfet_01v8_6G4XAN a_n29_n155# a_29_n243# a_n287_n155# a_n389_n329#
+ a_n229_n243# a_229_55# a_229_n155# a_n287_55# a_n29_55#
X0 a_n29_n155# a_n229_n243# a_n287_n155# a_n389_n329# sky130_fd_pr__nfet_01v8 ad=0.0725 pd=0.79 as=0.145 ps=1.58 w=0.5 l=1
X1 a_229_n155# a_29_n243# a_n29_n155# a_n389_n329# sky130_fd_pr__nfet_01v8 ad=0.145 pd=1.58 as=0.0725 ps=0.79 w=0.5 l=1
X2 a_229_55# a_29_n243# a_n29_55# a_n389_n329# sky130_fd_pr__nfet_01v8 ad=0.145 pd=1.58 as=0.0725 ps=0.79 w=0.5 l=1
X3 a_n29_55# a_n229_n243# a_n287_55# a_n389_n329# sky130_fd_pr__nfet_01v8 ad=0.0725 pd=0.79 as=0.145 ps=1.58 w=0.5 l=1
.ends

.subckt sky130_fd_sc_hd__and2_0 A B VGND VNB VPB VPWR X
X0 VPWR B a_40_47# VPB sky130_fd_pr__pfet_01v8_hvt ad=0.1841 pd=1.26 as=0.0609 ps=0.71 w=0.42 l=0.15
X1 X a_40_47# VPWR VPB sky130_fd_pr__pfet_01v8_hvt ad=0.1696 pd=1.81 as=0.1841 ps=1.26 w=0.64 l=0.15
X2 VGND B a_123_47# VNB sky130_fd_pr__nfet_01v8 ad=0.0966 pd=0.88 as=0.0441 ps=0.63 w=0.42 l=0.15
X3 X a_40_47# VGND VNB sky130_fd_pr__nfet_01v8 ad=0.1113 pd=1.37 as=0.0966 ps=0.88 w=0.42 l=0.15
X4 a_123_47# A a_40_47# VNB sky130_fd_pr__nfet_01v8 ad=0.0441 pd=0.63 as=0.1113 ps=1.37 w=0.42 l=0.15
X5 a_40_47# A VPWR VPB sky130_fd_pr__pfet_01v8_hvt ad=0.0609 pd=0.71 as=0.1113 ps=1.37 w=0.42 l=0.15
.ends

.subckt sky130_fd_sc_hd__dfrbp_1 CLK D RESET_B VGND VNB VPB VPWR Q Q_N
X0 Q a_1283_21# VPWR VPB sky130_fd_pr__pfet_01v8_hvt ad=0.28 pd=2.56 as=0.2132 ps=1.67 w=1 l=0.15
X1 a_805_47# a_761_289# a_639_47# VNB sky130_fd_pr__nfet_01v8 ad=0.0441 pd=0.63 as=0.1401 ps=1.1 w=0.42 l=0.15
X2 VPWR a_1283_21# a_1847_47# VPB sky130_fd_pr__pfet_01v8_hvt ad=0.154 pd=1.335 as=0.1664 ps=1.8 w=0.64 l=0.15
X3 a_1217_47# a_27_47# a_1108_47# VNB sky130_fd_pr__special_nfet_01v8 ad=0.0669 pd=0.75 as=0.0711 ps=0.755 w=0.36 l=0.15
X4 a_1283_21# a_1108_47# a_1462_47# VNB sky130_fd_pr__nfet_01v8 ad=0.1092 pd=1.36 as=0.06405 ps=0.725 w=0.42 l=0.15
X5 a_651_413# a_27_47# a_543_47# VPB sky130_fd_pr__pfet_01v8_hvt ad=0.1155 pd=0.97 as=0.07245 ps=0.765 w=0.42 l=0.15
X6 a_1108_47# a_193_47# a_761_289# VNB sky130_fd_pr__special_nfet_01v8 ad=0.0711 pd=0.755 as=0.0999 ps=0.985 w=0.36 l=0.15
X7 VGND RESET_B a_805_47# VNB sky130_fd_pr__nfet_01v8 ad=0.1346 pd=1.15 as=0.0441 ps=0.63 w=0.42 l=0.15
X8 VPWR CLK a_27_47# VPB sky130_fd_pr__pfet_01v8_hvt ad=0.0864 pd=0.91 as=0.1664 ps=1.8 w=0.64 l=0.15
X9 Q_N a_1847_47# VGND VNB sky130_fd_pr__nfet_01v8 ad=0.169 pd=1.82 as=0.10025 ps=0.985 w=0.65 l=0.15
X10 a_448_47# D VPWR VPB sky130_fd_pr__pfet_01v8_hvt ad=0.0651 pd=0.73 as=0.1092 ps=1.36 w=0.42 l=0.15
X11 VGND a_1283_21# a_1847_47# VNB sky130_fd_pr__nfet_01v8 ad=0.10025 pd=0.985 as=0.1092 ps=1.36 w=0.42 l=0.15
X12 a_761_289# a_543_47# VGND VNB sky130_fd_pr__nfet_01v8 ad=0.0999 pd=0.985 as=0.1346 ps=1.15 w=0.64 l=0.15
X13 Q a_1283_21# VGND VNB sky130_fd_pr__nfet_01v8 ad=0.169 pd=1.82 as=0.169 ps=1.82 w=0.65 l=0.15
X14 a_193_47# a_27_47# VGND VNB sky130_fd_pr__nfet_01v8 ad=0.1092 pd=1.36 as=0.0567 ps=0.69 w=0.42 l=0.15
X15 a_1108_47# a_27_47# a_761_289# VPB sky130_fd_pr__pfet_01v8_hvt ad=0.0588 pd=0.7 as=0.12915 ps=1.185 w=0.42 l=0.15
X16 a_1462_47# RESET_B VGND VNB sky130_fd_pr__nfet_01v8 ad=0.06405 pd=0.725 as=0.12495 ps=1.015 w=0.42 l=0.15
X17 a_543_47# a_27_47# a_448_47# VNB sky130_fd_pr__special_nfet_01v8 ad=0.0594 pd=0.69 as=0.066 ps=0.745 w=0.36 l=0.15
X18 a_543_47# a_193_47# a_448_47# VPB sky130_fd_pr__pfet_01v8_hvt ad=0.07245 pd=0.765 as=0.0651 ps=0.73 w=0.42 l=0.15
X19 a_448_47# D VGND VNB sky130_fd_pr__nfet_01v8 ad=0.066 pd=0.745 as=0.2205 ps=1.89 w=0.42 l=0.15
X20 VPWR a_1283_21# a_1270_413# VPB sky130_fd_pr__pfet_01v8_hvt ad=0.0819 pd=0.81 as=0.0567 ps=0.69 w=0.42 l=0.15
X21 VPWR a_1108_47# a_1283_21# VPB sky130_fd_pr__pfet_01v8_hvt ad=0.2132 pd=1.67 as=0.0567 ps=0.69 w=0.42 l=0.15
X22 a_1270_413# a_193_47# a_1108_47# VPB sky130_fd_pr__pfet_01v8_hvt ad=0.0567 pd=0.69 as=0.0588 ps=0.7 w=0.42 l=0.15
X23 a_193_47# a_27_47# VPWR VPB sky130_fd_pr__pfet_01v8_hvt ad=0.1664 pd=1.8 as=0.0864 ps=0.91 w=0.64 l=0.15
X24 a_1283_21# RESET_B VPWR VPB sky130_fd_pr__pfet_01v8_hvt ad=0.0567 pd=0.69 as=0.0819 ps=0.81 w=0.42 l=0.15
X25 VPWR a_761_289# a_651_413# VPB sky130_fd_pr__pfet_01v8_hvt ad=0.07035 pd=0.755 as=0.1155 ps=0.97 w=0.42 l=0.15
X26 a_639_47# a_193_47# a_543_47# VNB sky130_fd_pr__special_nfet_01v8 ad=0.1401 pd=1.1 as=0.0594 ps=0.69 w=0.36 l=0.15
X27 Q_N a_1847_47# VPWR VPB sky130_fd_pr__pfet_01v8_hvt ad=0.26 pd=2.52 as=0.154 ps=1.335 w=1 l=0.15
X28 VGND a_1283_21# a_1217_47# VNB sky130_fd_pr__nfet_01v8 ad=0.12495 pd=1.015 as=0.0669 ps=0.75 w=0.42 l=0.15
X29 a_651_413# RESET_B VPWR VPB sky130_fd_pr__pfet_01v8_hvt ad=0.1092 pd=1.36 as=0.07035 ps=0.755 w=0.42 l=0.15
X30 VGND CLK a_27_47# VNB sky130_fd_pr__nfet_01v8 ad=0.0567 pd=0.69 as=0.1092 ps=1.36 w=0.42 l=0.15
X31 a_761_289# a_543_47# VPWR VPB sky130_fd_pr__pfet_01v8_hvt ad=0.12915 pd=1.185 as=0.2184 ps=2.2 w=0.84 l=0.15
.ends

.subckt ripple_dly_4 clkin ena doneb dvss dvdd
Xx1 clkin doneb dvss dvss dvdd dvdd x1/X sky130_fd_sc_hd__and2_0
Xx3 Qb1 Qb2 ena dvss dvss dvdd dvdd x3/Q Qb2 sky130_fd_sc_hd__dfrbp_1
Xx2 x1/X Qb1 ena dvss dvss dvdd dvdd x2/Q Qb1 sky130_fd_sc_hd__dfrbp_1
Xx4 Qb2 doneb ena dvss dvss dvdd dvdd x4/Q doneb sky130_fd_sc_hd__dfrbp_1
.ends

.subckt sky130_fd_sc_hd__a221o_1 A1 A2 B1 B2 C1 VGND VNB VPB VPWR X
X0 a_465_47# A1 a_27_47# VNB sky130_fd_pr__nfet_01v8 ad=0.10725 pd=0.98 as=0.169 ps=1.82 w=0.65 l=0.15
X1 X a_27_47# VPWR VPB sky130_fd_pr__pfet_01v8_hvt ad=0.26 pd=2.52 as=0.1575 ps=1.315 w=1 l=0.15
X2 a_109_297# B1 a_193_297# VPB sky130_fd_pr__pfet_01v8_hvt ad=0.26 pd=2.52 as=0.135 ps=1.27 w=1 l=0.15
X3 a_193_297# B2 a_109_297# VPB sky130_fd_pr__pfet_01v8_hvt ad=0.135 pd=1.27 as=0.135 ps=1.27 w=1 l=0.15
X4 X a_27_47# VGND VNB sky130_fd_pr__nfet_01v8 ad=0.169 pd=1.82 as=0.102375 ps=0.965 w=0.65 l=0.15
X5 a_205_47# B2 VGND VNB sky130_fd_pr__nfet_01v8 ad=0.06825 pd=0.86 as=0.10725 ps=0.98 w=0.65 l=0.15
X6 VPWR A2 a_193_297# VPB sky130_fd_pr__pfet_01v8_hvt ad=0.1575 pd=1.315 as=0.165 ps=1.33 w=1 l=0.15
X7 a_193_297# A1 VPWR VPB sky130_fd_pr__pfet_01v8_hvt ad=0.165 pd=1.33 as=0.26 ps=2.52 w=1 l=0.15
X8 a_27_47# B1 a_205_47# VNB sky130_fd_pr__nfet_01v8 ad=0.169 pd=1.82 as=0.06825 ps=0.86 w=0.65 l=0.15
X9 a_109_297# C1 a_27_47# VPB sky130_fd_pr__pfet_01v8_hvt ad=0.135 pd=1.27 as=0.26 ps=2.52 w=1 l=0.15
X10 VGND C1 a_27_47# VNB sky130_fd_pr__nfet_01v8 ad=0.10725 pd=0.98 as=0.169 ps=1.82 w=0.65 l=0.15
X11 VGND A2 a_465_47# VNB sky130_fd_pr__nfet_01v8 ad=0.102375 pd=0.965 as=0.10725 ps=0.98 w=0.65 l=0.15
.ends

.subckt sky130_fd_sc_hd__einvn_0 A TE_B VGND VNB VPB VPWR Z
X0 VGND TE_B a_30_47# VNB sky130_fd_pr__nfet_01v8 ad=0.07665 pd=0.785 as=0.1092 ps=1.36 w=0.42 l=0.15
X1 Z A a_215_369# VPB sky130_fd_pr__pfet_01v8_hvt ad=0.1664 pd=1.8 as=0.0672 ps=0.85 w=0.64 l=0.15
X2 a_215_369# TE_B VPWR VPB sky130_fd_pr__pfet_01v8_hvt ad=0.0672 pd=0.85 as=0.10855 ps=1.005 w=0.64 l=0.15
X3 a_215_47# a_30_47# VGND VNB sky130_fd_pr__nfet_01v8 ad=0.0441 pd=0.63 as=0.07665 ps=0.785 w=0.42 l=0.15
X4 Z A a_215_47# VNB sky130_fd_pr__nfet_01v8 ad=0.1092 pd=1.36 as=0.0441 ps=0.63 w=0.42 l=0.15
X5 VPWR TE_B a_30_47# VPB sky130_fd_pr__pfet_01v8_hvt ad=0.10855 pd=1.005 as=0.1092 ps=1.36 w=0.42 l=0.15
.ends

.subckt sky130_fd_pr__nfet_01v8_AHZR5K a_n458_n50# a_n400_n138# a_n560_n224# a_400_n50#
X0 a_400_n50# a_n400_n138# a_n458_n50# a_n560_n224# sky130_fd_pr__nfet_01v8 ad=0.145 pd=1.58 as=0.145 ps=1.58 w=0.5 l=4
.ends

.subckt ripl_dly_clk_buf clkin clkout ena stby stby_b dvss x5/VPB
Xx1 clkin ena ena_done_b dvss x5/VPB ripple_dly_4
Xx2 clkin stby_b stby_done_b dvss x5/VPB ripple_dly_4
Xx3 stby_b stby_done_b ena ena_done_b stby dvss dvss x5/VPB x5/VPB clk_disable sky130_fd_sc_hd__a221o_1
Xx5 clkin clk_disable dvss dvss x5/VPB x5/VPB clkout sky130_fd_sc_hd__einvn_0
XXM3 clkout clk_disable dvss dvss sky130_fd_pr__nfet_01v8_AHZR5K
.ends

.subckt sky130_fd_pr__nfet_g5v0d10v5_CD9S2Z a_100_n100# a_n292_n322# a_n158_n100#
+ a_n100_n188#
X0 a_100_n100# a_n100_n188# a_n158_n100# a_n292_n322# sky130_fd_pr__nfet_g5v0d10v5 ad=0.29 pd=2.58 as=0.29 ps=2.58 w=1 l=1
.ends

.subckt sky130_fd_pr__res_xhigh_po_0p35_68VL2P a_961_n11416# a_463_10984# a_n35_n11416#
+ a_1625_10984# a_n201_n11416# a_n1197_n11416# a_n1363_10984# a_1625_n11416# a_629_n11416#
+ a_1127_10984# a_131_n11416# a_n533_10984# a_n35_10984# a_n533_n11416# a_1957_n11416#
+ a_795_10984# a_n2157_n11546# a_463_n11416# a_1957_10984# a_n865_n11416# a_n1861_n11416#
+ a_n1695_10984# a_1791_n11416# a_1127_n11416# a_795_n11416# a_297_10984# a_1459_10984#
+ a_n865_10984# a_629_10984# a_n1529_n11416# a_n1031_n11416# a_n1197_10984# a_1459_n11416#
+ a_n1529_10984# a_n367_10984# a_n367_n11416# a_131_10984# a_n1363_n11416# a_n2027_10984#
+ a_297_n11416# a_1293_n11416# a_n699_n11416# a_n1031_10984# a_1791_10984# a_n1695_n11416#
+ a_961_10984# a_n201_10984# a_n2027_n11416# a_n699_10984# a_n1861_10984# a_1293_10984#
X0 a_1957_10984# a_1957_n11416# a_n2157_n11546# sky130_fd_pr__res_xhigh_po_0p35 l=110
X1 a_n1861_10984# a_n1861_n11416# a_n2157_n11546# sky130_fd_pr__res_xhigh_po_0p35 l=110
X2 a_463_10984# a_463_n11416# a_n2157_n11546# sky130_fd_pr__res_xhigh_po_0p35 l=110
X3 a_1791_10984# a_1791_n11416# a_n2157_n11546# sky130_fd_pr__res_xhigh_po_0p35 l=110
X4 a_n35_10984# a_n35_n11416# a_n2157_n11546# sky130_fd_pr__res_xhigh_po_0p35 l=110
X5 a_795_10984# a_795_n11416# a_n2157_n11546# sky130_fd_pr__res_xhigh_po_0p35 l=110
X6 a_n2027_10984# a_n2027_n11416# a_n2157_n11546# sky130_fd_pr__res_xhigh_po_0p35 l=110
X7 a_961_10984# a_961_n11416# a_n2157_n11546# sky130_fd_pr__res_xhigh_po_0p35 l=110
X8 a_n1197_10984# a_n1197_n11416# a_n2157_n11546# sky130_fd_pr__res_xhigh_po_0p35 l=110
X9 a_n1031_10984# a_n1031_n11416# a_n2157_n11546# sky130_fd_pr__res_xhigh_po_0p35 l=110
X10 a_1127_10984# a_1127_n11416# a_n2157_n11546# sky130_fd_pr__res_xhigh_po_0p35 l=110
X11 a_n1529_10984# a_n1529_n11416# a_n2157_n11546# sky130_fd_pr__res_xhigh_po_0p35 l=110
X12 a_n367_10984# a_n367_n11416# a_n2157_n11546# sky130_fd_pr__res_xhigh_po_0p35 l=110
X13 a_n201_10984# a_n201_n11416# a_n2157_n11546# sky130_fd_pr__res_xhigh_po_0p35 l=110
X14 a_1459_10984# a_1459_n11416# a_n2157_n11546# sky130_fd_pr__res_xhigh_po_0p35 l=110
X15 a_n1363_10984# a_n1363_n11416# a_n2157_n11546# sky130_fd_pr__res_xhigh_po_0p35 l=110
X16 a_n699_10984# a_n699_n11416# a_n2157_n11546# sky130_fd_pr__res_xhigh_po_0p35 l=110
X17 a_n533_10984# a_n533_n11416# a_n2157_n11546# sky130_fd_pr__res_xhigh_po_0p35 l=110
X18 a_1293_10984# a_1293_n11416# a_n2157_n11546# sky130_fd_pr__res_xhigh_po_0p35 l=110
X19 a_n1695_10984# a_n1695_n11416# a_n2157_n11546# sky130_fd_pr__res_xhigh_po_0p35 l=110
X20 a_297_10984# a_297_n11416# a_n2157_n11546# sky130_fd_pr__res_xhigh_po_0p35 l=110
X21 a_1625_10984# a_1625_n11416# a_n2157_n11546# sky130_fd_pr__res_xhigh_po_0p35 l=110
X22 a_n865_10984# a_n865_n11416# a_n2157_n11546# sky130_fd_pr__res_xhigh_po_0p35 l=110
X23 a_131_10984# a_131_n11416# a_n2157_n11546# sky130_fd_pr__res_xhigh_po_0p35 l=110
X24 a_629_10984# a_629_n11416# a_n2157_n11546# sky130_fd_pr__res_xhigh_po_0p35 l=110
.ends

.subckt sky130_fd_pr__nfet_01v8_UY343Z a_n800_n138# a_n960_n224# a_n858_n50# a_800_n50#
X0 a_800_n50# a_n800_n138# a_n858_n50# a_n960_n224# sky130_fd_pr__nfet_01v8 ad=0.145 pd=1.58 as=0.145 ps=1.58 w=0.5 l=8
.ends

.subckt sky130_fd_pr__pfet_01v8_EDYT7U w_n996_n269# a_n858_n50# a_n800_n147# a_800_n50#
X0 a_800_n50# a_n800_n147# a_n858_n50# w_n996_n269# sky130_fd_pr__pfet_01v8 ad=0.145 pd=1.58 as=0.145 ps=1.58 w=0.5 l=8
.ends

.subckt sky130_fd_pr__nfet_g5v0d10v5_YG6WAD a_n287_n488# a_761_n400# a_819_n488# a_345_n488#
+ a_n1111_n622# a_n29_n400# a_n919_n488# a_n187_n400# a_n445_n488# a_503_n488# a_n819_n400#
+ a_n345_n400# a_n603_n488# a_661_n488# a_n977_n400# a_n761_n488# a_129_n400# a_n503_n400#
+ a_287_n400# a_n661_n400# a_919_n400# a_445_n400# a_29_n488# a_n129_n488# a_603_n400#
+ a_187_n488#
X0 a_n503_n400# a_n603_n488# a_n661_n400# a_n1111_n622# sky130_fd_pr__nfet_g5v0d10v5 ad=0.58 pd=4.29 as=0.58 ps=4.29 w=4 l=0.5
X1 a_n29_n400# a_n129_n488# a_n187_n400# a_n1111_n622# sky130_fd_pr__nfet_g5v0d10v5 ad=0.58 pd=4.29 as=0.58 ps=4.29 w=4 l=0.5
X2 a_603_n400# a_503_n488# a_445_n400# a_n1111_n622# sky130_fd_pr__nfet_g5v0d10v5 ad=0.58 pd=4.29 as=0.58 ps=4.29 w=4 l=0.5
X3 a_n819_n400# a_n919_n488# a_n977_n400# a_n1111_n622# sky130_fd_pr__nfet_g5v0d10v5 ad=0.58 pd=4.29 as=1.16 ps=8.58 w=4 l=0.5
X4 a_n661_n400# a_n761_n488# a_n819_n400# a_n1111_n622# sky130_fd_pr__nfet_g5v0d10v5 ad=0.58 pd=4.29 as=0.58 ps=4.29 w=4 l=0.5
X5 a_919_n400# a_819_n488# a_761_n400# a_n1111_n622# sky130_fd_pr__nfet_g5v0d10v5 ad=1.16 pd=8.58 as=0.58 ps=4.29 w=4 l=0.5
X6 a_n187_n400# a_n287_n488# a_n345_n400# a_n1111_n622# sky130_fd_pr__nfet_g5v0d10v5 ad=0.58 pd=4.29 as=0.58 ps=4.29 w=4 l=0.5
X7 a_761_n400# a_661_n488# a_603_n400# a_n1111_n622# sky130_fd_pr__nfet_g5v0d10v5 ad=0.58 pd=4.29 as=0.58 ps=4.29 w=4 l=0.5
X8 a_287_n400# a_187_n488# a_129_n400# a_n1111_n622# sky130_fd_pr__nfet_g5v0d10v5 ad=0.58 pd=4.29 as=0.58 ps=4.29 w=4 l=0.5
X9 a_n345_n400# a_n445_n488# a_n503_n400# a_n1111_n622# sky130_fd_pr__nfet_g5v0d10v5 ad=0.58 pd=4.29 as=0.58 ps=4.29 w=4 l=0.5
X10 a_129_n400# a_29_n488# a_n29_n400# a_n1111_n622# sky130_fd_pr__nfet_g5v0d10v5 ad=0.58 pd=4.29 as=0.58 ps=4.29 w=4 l=0.5
X11 a_445_n400# a_345_n488# a_287_n400# a_n1111_n622# sky130_fd_pr__nfet_g5v0d10v5 ad=0.58 pd=4.29 as=0.58 ps=4.29 w=4 l=0.5
.ends

.subckt sky130_fd_pr__cap_mim_m3_1_VMUSDZ m3_n2386_n11680# m3_n2386_2480# c1_n2346_n11640#
+ m3_n2386_n6960# m3_n2386_n2240# m3_n2386_7200#
X0 c1_n2346_n11640# m3_n2386_n11680# sky130_fd_pr__cap_mim_m3_1 l=22 w=22
X1 c1_n2346_n11640# m3_n2386_7200# sky130_fd_pr__cap_mim_m3_1 l=22 w=22
X2 c1_n2346_n11640# m3_n2386_n2240# sky130_fd_pr__cap_mim_m3_1 l=22 w=22
X3 c1_n2346_n11640# m3_n2386_2480# sky130_fd_pr__cap_mim_m3_1 l=22 w=22
X4 c1_n2346_n11640# m3_n2386_n6960# sky130_fd_pr__cap_mim_m3_1 l=22 w=22
.ends

.subckt sky130_fd_pr__nfet_01v8_HZ6WG7 a_100_n75# a_n260_n249# a_n100_n163# a_n158_n75#
X0 a_100_n75# a_n100_n163# a_n158_n75# a_n260_n249# sky130_fd_pr__nfet_01v8 ad=0.2175 pd=2.08 as=0.2175 ps=2.08 w=0.75 l=1
.ends

.subckt sky130_fd_pr__cap_mim_m3_1_67RTNB m3_n3798_n4520# c1_n3758_n4480#
X0 c1_n3758_n4480# m3_n3798_n4520# sky130_fd_pr__cap_mim_m3_1 l=10 w=10
X1 c1_n3758_n4480# m3_n3798_n4520# sky130_fd_pr__cap_mim_m3_1 l=10 w=10
X2 c1_n3758_n4480# m3_n3798_n4520# sky130_fd_pr__cap_mim_m3_1 l=10 w=10
X3 c1_n3758_n4480# m3_n3798_n4520# sky130_fd_pr__cap_mim_m3_1 l=10 w=10
X4 c1_n3758_n4480# m3_n3798_n4520# sky130_fd_pr__cap_mim_m3_1 l=10 w=10
X5 c1_n3758_n4480# m3_n3798_n4520# sky130_fd_pr__cap_mim_m3_1 l=10 w=10
X6 c1_n3758_n4480# m3_n3798_n4520# sky130_fd_pr__cap_mim_m3_1 l=10 w=10
X7 c1_n3758_n4480# m3_n3798_n4520# sky130_fd_pr__cap_mim_m3_1 l=10 w=10
X8 c1_n3758_n4480# m3_n3798_n4520# sky130_fd_pr__cap_mim_m3_1 l=10 w=10
X9 c1_n3758_n4480# m3_n3798_n4520# sky130_fd_pr__cap_mim_m3_1 l=10 w=10
X10 c1_n3758_n4480# m3_n3798_n4520# sky130_fd_pr__cap_mim_m3_1 l=10 w=10
X11 c1_n3758_n4480# m3_n3798_n4520# sky130_fd_pr__cap_mim_m3_1 l=10 w=10
.ends

.subckt sky130_fd_pr__cap_mim_m3_1_WXTTNJ c1_n2146_n2000# m3_n2186_n2040#
X0 c1_n2146_n2000# m3_n2186_n2040# sky130_fd_pr__cap_mim_m3_1 l=20 w=20
.ends

.subckt sky130_fd_pr__diode_pd2nw_05v5_K4SERG a_n45_n45# w_n183_n183#
X0 a_n45_n45# w_n183_n183# sky130_fd_pr__diode_pd2nw_05v5 perim=1.8e+06 area=2.025e+11
.ends

.subckt sky130_fd_pr__nfet_g5v0d10v5_GZN5JV a_208_n400# a_366_n400# a_n558_n622# a_108_n488#
+ a_50_n400# a_n208_n488# a_266_n488# a_n366_n488# a_n108_n400# a_n266_n400# a_n50_n488#
+ a_n424_n400#
X0 a_n266_n400# a_n366_n488# a_n424_n400# a_n558_n622# sky130_fd_pr__nfet_g5v0d10v5 ad=0.58 pd=4.29 as=1.16 ps=8.58 w=4 l=0.5
X1 a_366_n400# a_266_n488# a_208_n400# a_n558_n622# sky130_fd_pr__nfet_g5v0d10v5 ad=1.16 pd=8.58 as=0.58 ps=4.29 w=4 l=0.5
X2 a_50_n400# a_n50_n488# a_n108_n400# a_n558_n622# sky130_fd_pr__nfet_g5v0d10v5 ad=0.58 pd=4.29 as=0.58 ps=4.29 w=4 l=0.5
X3 a_n108_n400# a_n208_n488# a_n266_n400# a_n558_n622# sky130_fd_pr__nfet_g5v0d10v5 ad=0.58 pd=4.29 as=0.58 ps=4.29 w=4 l=0.5
X4 a_208_n400# a_108_n488# a_50_n400# a_n558_n622# sky130_fd_pr__nfet_g5v0d10v5 ad=0.58 pd=4.29 as=0.58 ps=4.29 w=4 l=0.5
.ends

.subckt sky130_fd_pr__cap_mim_m3_1_F5PPB9 c1_n1946_n7680# m3_n1986_n3800# m3_n1986_4040#
+ m3_n1986_120# m3_n1986_n7720#
X0 c1_n1946_n7680# m3_n1986_n7720# sky130_fd_pr__cap_mim_m3_1 l=18 w=18
X1 c1_n1946_n7680# m3_n1986_120# sky130_fd_pr__cap_mim_m3_1 l=18 w=18
X2 c1_n1946_n7680# m3_n1986_4040# sky130_fd_pr__cap_mim_m3_1 l=18 w=18
X3 c1_n1946_n7680# m3_n1986_n3800# sky130_fd_pr__cap_mim_m3_1 l=18 w=18
.ends

.subckt sky130_fd_pr__pfet_g5v0d10v5_E4RF2H a_2054_64# a_n2112_64# a_n1934_n961# a_898_n864#
+ a_n258_n864# a_778_n864# a_n1356_n961# a_898_64# a_n200_n961# a_n378_64# a_n956_64#
+ a_n1992_n864# a_2512_n864# a_2512_64# a_1534_n961# a_n2570_64# a_n1534_n864# a_2054_n864#
+ a_320_64# a_n1414_n864# a_956_n961# w_n2770_n1161# a_n778_n961# a_1476_64# a_778_64#
+ a_n1534_64# a_n2512_n961# a_n258_64# a_n836_64# a_378_n961# a_320_n864# a_n956_n864#
+ a_1934_n864# a_200_64# a_200_n864# a_n2570_n864# a_1476_n864# a_n836_n864# a_1934_64#
+ a_1356_64# a_n1414_64# a_2112_n961# a_n378_n864# a_n1992_64# a_1356_n864# a_n2112_n864#
X0 a_n2112_64# a_n2512_n961# a_n2570_64# w_n2770_n1161# sky130_fd_pr__pfet_g5v0d10v5 ad=1.16 pd=8.58 as=1.16 ps=8.58 w=4 l=2
X1 a_n2112_n864# a_n2512_n961# a_n2570_n864# w_n2770_n1161# sky130_fd_pr__pfet_g5v0d10v5 ad=1.16 pd=8.58 as=1.16 ps=8.58 w=4 l=2
X2 a_n1534_n864# a_n1934_n961# a_n1992_n864# w_n2770_n1161# sky130_fd_pr__pfet_g5v0d10v5 ad=1.16 pd=8.58 as=1.16 ps=8.58 w=4 l=2
X3 a_200_n864# a_n200_n961# a_n258_n864# w_n2770_n1161# sky130_fd_pr__pfet_g5v0d10v5 ad=1.16 pd=8.58 as=1.16 ps=8.58 w=4 l=2
X4 a_1356_n864# a_956_n961# a_898_n864# w_n2770_n1161# sky130_fd_pr__pfet_g5v0d10v5 ad=1.16 pd=8.58 as=1.16 ps=8.58 w=4 l=2
X5 a_778_64# a_378_n961# a_320_64# w_n2770_n1161# sky130_fd_pr__pfet_g5v0d10v5 ad=1.16 pd=8.58 as=1.16 ps=8.58 w=4 l=2
X6 a_n956_64# a_n1356_n961# a_n1414_64# w_n2770_n1161# sky130_fd_pr__pfet_g5v0d10v5 ad=1.16 pd=8.58 as=1.16 ps=8.58 w=4 l=2
X7 a_n956_n864# a_n1356_n961# a_n1414_n864# w_n2770_n1161# sky130_fd_pr__pfet_g5v0d10v5 ad=1.16 pd=8.58 as=1.16 ps=8.58 w=4 l=2
X8 a_1356_64# a_956_n961# a_898_64# w_n2770_n1161# sky130_fd_pr__pfet_g5v0d10v5 ad=1.16 pd=8.58 as=1.16 ps=8.58 w=4 l=2
X9 a_1934_64# a_1534_n961# a_1476_64# w_n2770_n1161# sky130_fd_pr__pfet_g5v0d10v5 ad=1.16 pd=8.58 as=1.16 ps=8.58 w=4 l=2
X10 a_778_n864# a_378_n961# a_320_n864# w_n2770_n1161# sky130_fd_pr__pfet_g5v0d10v5 ad=1.16 pd=8.58 as=1.16 ps=8.58 w=4 l=2
X11 a_n1534_64# a_n1934_n961# a_n1992_64# w_n2770_n1161# sky130_fd_pr__pfet_g5v0d10v5 ad=1.16 pd=8.58 as=1.16 ps=8.58 w=4 l=2
X12 a_200_64# a_n200_n961# a_n258_64# w_n2770_n1161# sky130_fd_pr__pfet_g5v0d10v5 ad=1.16 pd=8.58 as=1.16 ps=8.58 w=4 l=2
X13 a_n378_n864# a_n778_n961# a_n836_n864# w_n2770_n1161# sky130_fd_pr__pfet_g5v0d10v5 ad=1.16 pd=8.58 as=1.16 ps=8.58 w=4 l=2
X14 a_2512_n864# a_2112_n961# a_2054_n864# w_n2770_n1161# sky130_fd_pr__pfet_g5v0d10v5 ad=1.16 pd=8.58 as=1.16 ps=8.58 w=4 l=2
X15 a_n378_64# a_n778_n961# a_n836_64# w_n2770_n1161# sky130_fd_pr__pfet_g5v0d10v5 ad=1.16 pd=8.58 as=1.16 ps=8.58 w=4 l=2
X16 a_1934_n864# a_1534_n961# a_1476_n864# w_n2770_n1161# sky130_fd_pr__pfet_g5v0d10v5 ad=1.16 pd=8.58 as=1.16 ps=8.58 w=4 l=2
X17 a_2512_64# a_2112_n961# a_2054_64# w_n2770_n1161# sky130_fd_pr__pfet_g5v0d10v5 ad=1.16 pd=8.58 as=1.16 ps=8.58 w=4 l=2
.ends

.subckt sky130_fd_pr__pfet_g5v0d10v5_74GBJT a_n208_n497# a_266_n497# a_208_n400# a_n366_n497#
+ a_366_n400# a_n50_n497# a_50_n400# a_n108_n400# a_n266_n400# w_n624_n697# a_n424_n400#
+ a_108_n497#
X0 a_n266_n400# a_n366_n497# a_n424_n400# w_n624_n697# sky130_fd_pr__pfet_g5v0d10v5 ad=0.58 pd=4.29 as=1.16 ps=8.58 w=4 l=0.5
X1 a_366_n400# a_266_n497# a_208_n400# w_n624_n697# sky130_fd_pr__pfet_g5v0d10v5 ad=1.16 pd=8.58 as=0.58 ps=4.29 w=4 l=0.5
X2 a_50_n400# a_n50_n497# a_n108_n400# w_n624_n697# sky130_fd_pr__pfet_g5v0d10v5 ad=0.58 pd=4.29 as=0.58 ps=4.29 w=4 l=0.5
X3 a_n108_n400# a_n208_n497# a_n266_n400# w_n624_n697# sky130_fd_pr__pfet_g5v0d10v5 ad=0.58 pd=4.29 as=0.58 ps=4.29 w=4 l=0.5
X4 a_208_n400# a_108_n497# a_50_n400# w_n624_n697# sky130_fd_pr__pfet_g5v0d10v5 ad=0.58 pd=4.29 as=0.58 ps=4.29 w=4 l=0.5
.ends

.subckt sky130_fd_pr__pfet_01v8_3H68VM w_n296_n619# a_n100_n497# a_100_n400# a_n158_n400#
X0 a_100_n400# a_n100_n497# a_n158_n400# w_n296_n619# sky130_fd_pr__pfet_01v8 ad=1.16 pd=8.58 as=1.16 ps=8.58 w=4 l=1
.ends

.subckt sky130_fd_pr__pfet_g5v0d10v5_6RLJVT a_n50_n497# a_50_n400# w_n308_n697# a_n108_n400#
X0 a_50_n400# a_n50_n497# a_n108_n400# w_n308_n697# sky130_fd_pr__pfet_g5v0d10v5 ad=1.16 pd=8.58 as=1.16 ps=8.58 w=4 l=0.5
.ends

.subckt sky130_fd_pr__pfet_01v8_MTZJAC a_761_n400# a_n29_n400# a_n187_n400# a_n819_n400#
+ a_n345_n400# a_29_n497# a_n129_n497# a_187_n497# a_129_n400# a_n503_n400# a_n287_n497#
+ a_287_n400# a_n661_n400# a_345_n497# a_n445_n497# a_445_n400# a_503_n497# a_n603_n497#
+ a_661_n497# w_n957_n619# a_603_n400# a_n761_n497#
X0 a_n661_n400# a_n761_n497# a_n819_n400# w_n957_n619# sky130_fd_pr__pfet_01v8 ad=0.58 pd=4.29 as=1.16 ps=8.58 w=4 l=0.5
X1 a_n187_n400# a_n287_n497# a_n345_n400# w_n957_n619# sky130_fd_pr__pfet_01v8 ad=0.58 pd=4.29 as=0.58 ps=4.29 w=4 l=0.5
X2 a_761_n400# a_661_n497# a_603_n400# w_n957_n619# sky130_fd_pr__pfet_01v8 ad=1.16 pd=8.58 as=0.58 ps=4.29 w=4 l=0.5
X3 a_287_n400# a_187_n497# a_129_n400# w_n957_n619# sky130_fd_pr__pfet_01v8 ad=0.58 pd=4.29 as=0.58 ps=4.29 w=4 l=0.5
X4 a_n345_n400# a_n445_n497# a_n503_n400# w_n957_n619# sky130_fd_pr__pfet_01v8 ad=0.58 pd=4.29 as=0.58 ps=4.29 w=4 l=0.5
X5 a_129_n400# a_29_n497# a_n29_n400# w_n957_n619# sky130_fd_pr__pfet_01v8 ad=0.58 pd=4.29 as=0.58 ps=4.29 w=4 l=0.5
X6 a_445_n400# a_345_n497# a_287_n400# w_n957_n619# sky130_fd_pr__pfet_01v8 ad=0.58 pd=4.29 as=0.58 ps=4.29 w=4 l=0.5
X7 a_n503_n400# a_n603_n497# a_n661_n400# w_n957_n619# sky130_fd_pr__pfet_01v8 ad=0.58 pd=4.29 as=0.58 ps=4.29 w=4 l=0.5