* NGSPICE file created from sky130_be_ip__lsxo_rcx.ext - technology: sky130A

.subckt sky130_be_ip__lsxo_rcx ibias dout xout xin ena avss avdd standby dvss dvdd
X0 a_16620_n1869# a_15705_n2241# a_16273_n2273# dvss.t4 sky130_fd_pr__special_nfet_01v8 ad=0.0711 pd=0.755 as=0.0999 ps=0.985 w=0.36 l=0.15
X1 a_20376_n2791# x7.stby_done_b dvdd.t109 dvdd.t19 sky130_fd_pr__pfet_01v8_hvt ad=0.0651 pd=0.73 as=0.1092 ps=1.36 w=0.42 l=0.15
X2 a_21036_n1869# a_19955_n2241# a_20689_n2273# dvdd.t86 sky130_fd_pr__pfet_01v8_hvt ad=0.0588 pd=0.7 as=0.12915 ps=1.185 w=0.42 l=0.15
X3 a_10620_n8338# a_24220_n8172# dvss_ip sky130_fd_pr__res_xhigh_po_0p35 l=66
X4 a_16795_n2817# a_16620_n2791# a_16974_n2791# dvss.t146 sky130_fd_pr__nfet_01v8 ad=0.1092 pd=1.36 as=0.06405 ps=0.725 w=0.42 l=0.15
X5 dvdd.t74 ena_ip x3.in_b dvdd.t73 sky130_fd_pr__pfet_01v8 ad=0.29 pd=2.58 as=0.29 ps=2.58 w=1 l=1
X6 dvdd.t164 a_21036_n1869# a_21211_n1943# dvdd.t121 sky130_fd_pr__pfet_01v8_hvt ad=0.2132 pd=1.67 as=0.0567 ps=0.69 w=0.42 l=0.15
X7 a_18828_n2791# a_17913_n2791# a_18481_n2549# dvss.t159 sky130_fd_pr__special_nfet_01v8 ad=0.0711 pd=0.755 as=0.0999 ps=0.985 w=0.36 l=0.15
X8 a_2130_n19848# a_24530_n20014# avss_ip.t2 sky130_fd_pr__res_xhigh_po_0p35 l=110
X9 vbreg icnode a_11526_n12394# avss_ip.t56 sky130_fd_pr__nfet_g5v0d10v5 ad=0.1218 pd=1.42 as=0.0609 ps=0.71 w=0.42 l=8
X10 x7.x2.x2.CLK a_15000_n2791# dvss.t24 dvss.t23 sky130_fd_pr__nfet_01v8 ad=0.1113 pd=1.37 as=0.0966 ps=0.88 w=0.42 l=0.15
X11 a_18168_n1881# x7.x1.Qb2 dvss.t81 dvss.t80 sky130_fd_pr__nfet_01v8 ad=0.066 pd=0.745 as=0.2205 ps=1.89 w=0.42 l=0.15
X12 tail vbp dvdd_ip dvdd_ip sky130_fd_pr__pfet_01v8 ad=0.58 pd=4.58 as=0.58 ps=4.58 w=2 l=2
X13 a_16317_n2791# a_16273_n2549# a_16151_n2791# dvss.t147 sky130_fd_pr__nfet_01v8 ad=0.0441 pd=0.63 as=0.1401 ps=1.1 w=0.42 l=0.15
X14 dvss.t74 standby_b dvss_ip dvss.t73 sky130_fd_pr__nfet_01v8 ad=0.58 pd=4.29 as=0.58 ps=4.29 w=4 l=0.5
X15 a_9120_n9346.t0 a_24220_n9832# dvss_ip sky130_fd_pr__res_xhigh_po_0p35 l=66
X16 a_16795_n1943# a_16620_n1869# a_16974_n1881# dvss.t179 sky130_fd_pr__nfet_01v8 ad=0.1092 pd=1.36 as=0.06405 ps=0.725 w=0.42 l=0.15
X17 x7.ena_done_b a_21775_n2247# dvdd.t133 dvdd.t23 sky130_fd_pr__pfet_01v8_hvt ad=0.26 pd=2.52 as=0.154 ps=1.335 w=1 l=0.15
X18 dvdd_ip dvss_ip sky130_fd_pr__cap_mim_m3_1 l=10 w=10
X19 a_20121_n2241# a_19955_n2241# dvdd.t85 dvdd.t84 sky130_fd_pr__pfet_01v8_hvt ad=0.1664 pd=1.8 as=0.0864 ps=0.91 w=0.64 l=0.15
X20 a_2130_n21176# a_24530_n21342# avss_ip.t2 sky130_fd_pr__res_xhigh_po_0p35 l=110
X21 ibias_ip standby_33 ibias.t1 ibias.t0 sky130_fd_pr__pfet_g5v0d10v5 ad=1.16 pd=8.58 as=1.16 ps=8.58 w=4 l=0.5
X22 xout.t19 vbreg avdd_ip.t26 avdd_ip.t9 sky130_fd_pr__pfet_g5v0d10v5 ad=1.16 pd=8.58 as=1.16 ps=8.58 w=4 l=2
X23 inv_m1 inv_in.t1 dvdd_ip dvdd_ip sky130_fd_pr__pfet_01v8 ad=0.145 pd=1.58 as=0.145 ps=1.58 w=0.5 l=8
X24 a_2132_n15590# a_18932_n15756# avss_ip.t3 sky130_fd_pr__res_xhigh_po_0p35 l=82
X25 dout_ip inv_m2 dvdd_ip dvdd_ip sky130_fd_pr__pfet_01v8 ad=0.145 pd=1.58 as=0.0725 ps=0.79 w=0.5 l=1
X26 a_20733_n2791# a_20689_n2549# a_20567_n2791# dvss.t2 sky130_fd_pr__nfet_01v8 ad=0.0441 pd=0.63 as=0.1401 ps=1.1 w=0.42 l=0.15
X27 inv_in.t2 xin_buf sky130_fd_pr__cap_mim_m3_1 l=10 w=10
X28 x7.x1.x2.CLK a_15000_n1881# dvss.t1 dvss.t0 sky130_fd_pr__nfet_01v8 ad=0.1113 pd=1.37 as=0.0966 ps=0.88 w=0.42 l=0.15
X29 avdd_ip.t29 avss_ip.t52 sky130_fd_pr__cap_mim_m3_1 l=7 w=7
X30 a_16317_n1881# a_16273_n2273# a_16151_n1869# dvss.t101 sky130_fd_pr__nfet_01v8 ad=0.0441 pd=0.63 as=0.1401 ps=1.1 w=0.42 l=0.15
X31 x7.stby_done_b a_21775_n2791# dvss.t26 dvss.t25 sky130_fd_pr__nfet_01v8 ad=0.169 pd=1.82 as=0.10025 ps=0.985 w=0.65 l=0.15
X32 a_14009_n2701# x7.clk_disable dvss.t208 dvss.t82 sky130_fd_pr__nfet_01v8 ad=0.1092 pd=1.36 as=0.07665 ps=0.785 w=0.42 l=0.15
X33 dvss.t196 standby_ip standby_b dvss.t195 sky130_fd_pr__nfet_01v8 ad=0.29 pd=2.58 as=0.29 ps=2.58 w=1 l=1
X34 dvss.t205 a_2971_n1521# ena_ip dvss.t204 sky130_fd_pr__nfet_01v8 ad=0.0754 pd=0.81 as=0.1352 ps=1.56 w=0.52 l=0.15
X35 dvss.t72 standby_b a_16317_n2791# dvss.t71 sky130_fd_pr__nfet_01v8 ad=0.1346 pd=1.15 as=0.0441 ps=0.63 w=0.42 l=0.15
X36 avdd_ip.t30 avss_ip.t33 sky130_fd_pr__cap_mim_m3_1 l=7 w=7
X37 dvdd_ip dvss_ip sky130_fd_pr__cap_mim_m3_1 l=10 w=10
X38 dvss.t22 x7.ena_done_b a_14035_n1997# dvss.t21 sky130_fd_pr__nfet_01v8 ad=0.10725 pd=0.98 as=0.06825 ps=0.86 w=0.65 l=0.15
X39 x7.stby_done_b a_21775_n2791# dvdd.t24 dvdd.t23 sky130_fd_pr__pfet_01v8_hvt ad=0.26 pd=2.52 as=0.154 ps=1.335 w=1 l=0.15
X40 a_2132_n17582# a_18932_n17416# avss_ip.t3 sky130_fd_pr__res_xhigh_po_0p35 l=82
X41 inv_m1 inv_in.t3 dvss_ip dvss_ip sky130_fd_pr__nfet_01v8 ad=0.145 pd=1.58 as=0.145 ps=1.58 w=0.5 l=8
X42 avss.t26 avdd.t19 sky130_fd_pr__cap_mim_m3_1 l=10 w=10
X43 a_10620_n9666# a_24220_n9832# dvss_ip sky130_fd_pr__res_xhigh_po_0p35 l=66
X44 a_20733_n1881# a_20689_n2273# a_20567_n1869# dvss.t153 sky130_fd_pr__nfet_01v8 ad=0.0441 pd=0.63 as=0.1401 ps=1.1 w=0.42 l=0.15
X45 dvdd.t9 x7.x2.x2.CLK a_15539_n2791# dvdd.t8 sky130_fd_pr__pfet_01v8_hvt ad=0.0864 pd=0.91 as=0.1664 ps=1.8 w=0.64 l=0.15
X46 a_16782_n2425# a_15705_n2791# a_16620_n2791# dvdd.t4 sky130_fd_pr__pfet_01v8_hvt ad=0.0567 pd=0.69 as=0.0588 ps=0.7 w=0.42 l=0.15
X47 dvdd_ip inv_m1 inv_m2 dvdd_ip sky130_fd_pr__pfet_01v8 ad=0.0725 pd=0.79 as=0.145 ps=1.58 w=0.5 l=1
X48 a_4857_n1521# standby.t0 dvdd.t132 dvdd.t131 sky130_fd_pr__pfet_01v8_hvt ad=0.2054 pd=2.1 as=0.11455 ps=1.08 w=0.79 l=0.15
X49 avdd_ip.t2 x3.out_b.t3 avdd.t9 avdd.t8 sky130_fd_pr__pfet_g5v0d10v5 ad=0.58 pd=4.29 as=0.58 ps=4.29 w=4 l=0.5
X50 dvdd_ip dvss_ip sky130_fd_pr__cap_mim_m3_1 l=10 w=10
X51 a_20121_n2791# a_19955_n2791# dvss.t169 dvss.t168 sky130_fd_pr__nfet_01v8 ad=0.1092 pd=1.36 as=0.0567 ps=0.69 w=0.42 l=0.15
X52 dvss.t98 ena_ip a_16317_n1881# dvss.t97 sky130_fd_pr__nfet_01v8 ad=0.1346 pd=1.15 as=0.0441 ps=0.63 w=0.42 l=0.15
X53 x7.x1.Qb2 a_19567_n2247# dvss.t76 dvss.t75 sky130_fd_pr__nfet_01v8 ad=0.169 pd=1.82 as=0.10025 ps=0.985 w=0.65 l=0.15
X54 dvss.t185 ena.t0 sky130_fd_pr__diode_pw2nd_05v5 perim=1.8e+06 area=2.025e+11
X55 dvdd.t80 a_19003_n2817# a_19567_n2791# dvdd.t29 sky130_fd_pr__pfet_01v8_hvt ad=0.154 pd=1.335 as=0.1664 ps=1.8 w=0.64 l=0.15
X56 avss_ip.t57 vg1.t2 vg1.t3 avss_ip.t19 sky130_fd_pr__nfet_g5v0d10v5 ad=1.16 pd=8.58 as=1.16 ps=8.58 w=4 l=2
X57 a_21145_n1869# a_19955_n2241# a_21036_n1869# dvss.t113 sky130_fd_pr__special_nfet_01v8 ad=0.0669 pd=0.75 as=0.0711 ps=0.755 w=0.36 l=0.15
X58 avdd_ip.t25 vbreg avdd_ip.t24 avdd_ip.t9 sky130_fd_pr__pfet_g5v0d10v5 ad=1.16 pd=8.58 as=0 ps=0 w=4 l=2
X59 a_21211_n2817# standby_b dvdd.t55 dvdd.t54 sky130_fd_pr__pfet_01v8_hvt ad=0.0567 pd=0.69 as=0.0819 ps=0.81 w=0.42 l=0.15
X60 avss_ip.t30 xin.t6 avss_ip.t29 avss_ip.t4 sky130_fd_pr__nfet_g5v0d10v5 ad=0.58 pd=4.29 as=0 ps=0 w=4 l=0.5
X61 a_19003_n2817# a_18828_n2791# a_19182_n2791# dvss.t180 sky130_fd_pr__nfet_01v8 ad=0.1092 pd=1.36 as=0.06405 ps=0.725 w=0.42 l=0.15
X62 a_15000_n1881# dout_ip dvdd.t65 dvdd.t63 sky130_fd_pr__pfet_01v8_hvt ad=0.0609 pd=0.71 as=0.1113 ps=1.37 w=0.42 l=0.15
X63 a_2132_n17250# a_18932_n17416# avss_ip.t3 sky130_fd_pr__res_xhigh_po_0p35 l=82
X64 a_20121_n2241# a_19955_n2241# dvss.t112 dvss.t111 sky130_fd_pr__nfet_01v8 ad=0.1092 pd=1.36 as=0.0567 ps=0.69 w=0.42 l=0.15
X65 dvss_ip ibias_ip dvss_ip dvss_ip sky130_fd_pr__nfet_g5v0d10v5 ad=0.58 pd=4.58 as=5.8 ps=45.8 w=2 l=2
X66 a_10620_n9666# a_24220_n9500# dvss_ip sky130_fd_pr__res_xhigh_po_0p35 l=66
X67 a_18359_n1869# a_17913_n2241# a_18263_n1869# dvss.t152 sky130_fd_pr__special_nfet_01v8 ad=0.1401 pd=1.1 as=0.0594 ps=0.69 w=0.36 l=0.15
X68 xout.t18 vbreg avdd_ip.t23 avdd_ip.t5 sky130_fd_pr__pfet_g5v0d10v5 ad=1.16 pd=8.58 as=1.16 ps=8.58 w=4 l=2
X69 avss_ip.t11 avss_ip.t12 avss_ip.t0 sky130_fd_pr__res_xhigh_po_0p35 l=75
X70 vbreg vg2.t5 vrb.t4 avss_ip.t19 sky130_fd_pr__nfet_g5v0d10v5 ad=1.16 pd=8.58 as=1.16 ps=8.58 w=4 l=2
X71 a_18525_n2791# a_18481_n2549# a_18359_n2791# dvss.t186 sky130_fd_pr__nfet_01v8 ad=0.0441 pd=0.63 as=0.1401 ps=1.1 w=0.42 l=0.15
X72 a_2130_n20844# a_24530_n21010# avss_ip.t2 sky130_fd_pr__res_xhigh_po_0p35 l=110
X73 a_15083_n2791# dout_ip a_15000_n2791# dvss.t84 sky130_fd_pr__nfet_01v8 ad=0.0441 pd=0.63 as=0.1113 ps=1.37 w=0.42 l=0.15
X74 a_21036_n1869# a_20121_n2241# a_20689_n2273# dvss.t182 sky130_fd_pr__special_nfet_01v8 ad=0.0711 pd=0.755 as=0.0999 ps=0.985 w=0.36 l=0.15
X75 dvss_ip standby_b dvss.t70 dvss.t69 sky130_fd_pr__nfet_01v8 ad=0.58 pd=4.29 as=0.58 ps=4.29 w=4 l=0.5
X76 a_2132_n15590# a_18932_n15424# avss_ip.t3 sky130_fd_pr__res_xhigh_po_0p35 l=82
X77 a_14285_n2079# x7.ena_done_b a_14285_n2281# dvdd.t21 sky130_fd_pr__pfet_01v8_hvt ad=0.135 pd=1.27 as=0.135 ps=1.27 w=1 l=0.15
X78 a_19003_n1943# a_18828_n1869# a_19182_n1881# dvss.t150 sky130_fd_pr__nfet_01v8 ad=0.1092 pd=1.36 as=0.06405 ps=0.725 w=0.42 l=0.15
X79 vn xin.t7 vn dvdd_ip sky130_fd_pr__pfet_g5v0d10v5 ad=1.16 pd=8.58 as=2.32 ps=17.16 w=4 l=2
X80 avss.t7 standby_b standby_33 avss.t6 sky130_fd_pr__nfet_g5v0d10v5 ad=0.87 pd=6.58 as=0.435 ps=3.29 w=3 l=0.5
X81 a_10620_n7674# a_24220_n7840# dvss_ip sky130_fd_pr__res_xhigh_po_0p35 l=66
X82 ibias_ip ibias_ip dvss_ip dvss_ip sky130_fd_pr__nfet_g5v0d10v5 ad=0.58 pd=4.58 as=0.58 ps=4.58 w=2 l=2
X83 avdd.t14 x3.out_b.t4 avdd_ip.t27 avdd.t13 sky130_fd_pr__pfet_g5v0d10v5 ad=1.16 pd=8.58 as=0.58 ps=4.29 w=4 l=0.5
X84 a_15960_n2791# x7.x2.Qb1 dvdd.t98 dvdd.t87 sky130_fd_pr__pfet_01v8_hvt ad=0.0651 pd=0.73 as=0.1092 ps=1.36 w=0.42 l=0.15
X85 a_2130_n19516# a_24530_n19682# avss_ip.t2 sky130_fd_pr__res_xhigh_po_0p35 l=110
X86 xin.t8 avdd_ip.t28 sky130_fd_pr__diode_pd2nw_05v5 perim=1.8e+06 area=2.025e+11
X87 a_20579_n2247# ena_ip dvdd.t72 dvdd.t52 sky130_fd_pr__pfet_01v8_hvt ad=0.1092 pd=1.36 as=0.07035 ps=0.755 w=0.42 l=0.15
X88 dvdd.t167 a_2971_n1521# ena_ip dvdd.t166 sky130_fd_pr__pfet_01v8_hvt ad=0.11455 pd=1.08 as=0.2054 ps=2.1 w=0.79 l=0.15
X89 dvdd_ip dvss_ip sky130_fd_pr__cap_mim_m3_1 l=10 w=10
X90 a_15083_n1881# dout_ip a_15000_n1881# dvss.t83 sky130_fd_pr__nfet_01v8 ad=0.0441 pd=0.63 as=0.1113 ps=1.37 w=0.42 l=0.15
X91 a_18525_n1881# a_18481_n2273# a_18359_n1869# dvss.t33 sky130_fd_pr__nfet_01v8 ad=0.0441 pd=0.63 as=0.1401 ps=1.1 w=0.42 l=0.15
X92 a_18168_n2791# x7.x2.Qb2 dvdd.t102 dvdd.t58 sky130_fd_pr__pfet_01v8_hvt ad=0.0651 pd=0.73 as=0.1092 ps=1.36 w=0.42 l=0.15
X93 dvss.t68 standby_b a_18525_n2791# dvss.t67 sky130_fd_pr__nfet_01v8 ad=0.1346 pd=1.15 as=0.0441 ps=0.63 w=0.42 l=0.15
X94 xin_buf xout.t23 tail dvdd_ip sky130_fd_pr__pfet_g5v0d10v5 ad=0.58 pd=4.29 as=0.58 ps=4.29 w=4 l=2
X95 a_16273_n2549# a_16055_n2791# dvdd.t82 dvdd.t81 sky130_fd_pr__pfet_01v8_hvt ad=0.12915 pd=1.185 as=0.2184 ps=2.2 w=0.84 l=0.15
X96 dvss.t145 x7.stby_done_b a_15083_n2791# dvss.t144 sky130_fd_pr__nfet_01v8 ad=0.0966 pd=0.88 as=0.0441 ps=0.63 w=0.42 l=0.15
X97 xout.t22 xin.t9 avss_ip.t62 avss_ip.t4 sky130_fd_pr__nfet_g5v0d10v5 ad=0.58 pd=4.29 as=0.58 ps=4.29 w=4 l=0.5
X98 x7.x1.x4.Q a_21211_n1943# dvss.t165 dvss.t164 sky130_fd_pr__nfet_01v8 ad=0.169 pd=1.82 as=0.169 ps=1.82 w=0.65 l=0.15
X99 dvdd.t108 x7.stby_done_b a_15000_n2791# dvdd.t17 sky130_fd_pr__pfet_01v8_hvt ad=0.1841 pd=1.26 as=0.0609 ps=0.71 w=0.42 l=0.15
X100 a_14009_n2404# standby_ip a_14285_n2079# dvdd.t163 sky130_fd_pr__pfet_01v8_hvt ad=0.26 pd=2.52 as=0.135 ps=1.27 w=1 l=0.15
X101 dvss_ip standby_b dvss.t66 dvss.t65 sky130_fd_pr__nfet_01v8 ad=0.58 pd=4.29 as=1.16 ps=8.58 w=4 l=0.5
X102 avdd_ip.t19 vbreg xout.t17 avdd_ip.t9 sky130_fd_pr__pfet_g5v0d10v5 ad=1.16 pd=8.58 as=1.16 ps=8.58 w=4 l=2
X103 tail vbp dvdd_ip dvdd_ip sky130_fd_pr__pfet_01v8 ad=0.58 pd=4.58 as=0.58 ps=4.58 w=2 l=2
X104 a_2130_n20844# a_24530_n20678# avss_ip.t2 sky130_fd_pr__res_xhigh_po_0p35 l=110
X105 a_16729_n1869# a_15539_n2241# a_16620_n1869# dvss.t42 sky130_fd_pr__special_nfet_01v8 ad=0.0669 pd=0.75 as=0.0711 ps=0.755 w=0.36 l=0.15
X106 avss_ip.t63 vg2.t4 sky130_fd_pr__cap_mim_m3_1 l=18 w=18
X107 dvdd_ip vbp dvdd_ip dvdd_ip sky130_fd_pr__pfet_01v8 ad=0.58 pd=4.58 as=19.865 ps=155.56 w=2 l=2
X108 a_16273_n2273# a_16055_n1869# dvdd.t105 dvdd.t81 sky130_fd_pr__pfet_01v8_hvt ad=0.12915 pd=1.185 as=0.2184 ps=2.2 w=0.84 l=0.15
X109 a_2132_n15258# a_18932_n15424# avss_ip.t3 sky130_fd_pr__res_xhigh_po_0p35 l=82
X110 a_18990_n2425# a_17913_n2791# a_18828_n2791# dvdd.t116 sky130_fd_pr__pfet_01v8_hvt ad=0.0567 pd=0.69 as=0.0588 ps=0.7 w=0.42 l=0.15
X111 a_14285_n2281# x7.stby_done_b dvdd.t107 dvdd.t106 sky130_fd_pr__pfet_01v8_hvt ad=0.165 pd=1.33 as=0.1575 ps=1.315 w=1 l=0.15
X112 avdd_ip.t22 vbreg avdd_ip.t21 avdd_ip.t5 sky130_fd_pr__pfet_g5v0d10v5 ad=1.16 pd=8.58 as=0 ps=0 w=4 l=2
X113 dvss.t96 ena_ip a_18525_n1881# dvss.t95 sky130_fd_pr__nfet_01v8 ad=0.1346 pd=1.15 as=0.0441 ps=0.63 w=0.42 l=0.15
X114 dvdd.t125 a_21211_n1943# a_21775_n2247# dvdd.t93 sky130_fd_pr__pfet_01v8_hvt ad=0.154 pd=1.335 as=0.1664 ps=1.8 w=0.64 l=0.15
X115 dvss.t20 x7.ena_done_b a_15083_n1881# dvss.t19 sky130_fd_pr__nfet_01v8 ad=0.0966 pd=0.88 as=0.0441 ps=0.63 w=0.42 l=0.15
X116 dvdd_ip dvss_ip sky130_fd_pr__cap_mim_m3_1 l=10 w=10
X117 a_16795_n1943# ena_ip dvdd.t71 dvdd.t50 sky130_fd_pr__pfet_01v8_hvt ad=0.0567 pd=0.69 as=0.0819 ps=0.81 w=0.42 l=0.15
X118 dvss.t154 standby.t1 sky130_fd_pr__diode_pw2nd_05v5 perim=1.8e+06 area=2.025e+11
X119 dvss.t64 standby_b dvss_ip dvss.t63 sky130_fd_pr__nfet_01v8 ad=0.58 pd=4.29 as=0.58 ps=4.29 w=4 l=0.5
X120 a_2130_n19516# a_24530_n19350# avss_ip.t2 sky130_fd_pr__res_xhigh_po_0p35 l=110
X121 dvdd.t38 a_14009_n2404# x7.clk_disable dvdd.t37 sky130_fd_pr__pfet_01v8_hvt ad=0.1575 pd=1.315 as=0.26 ps=2.52 w=1 l=0.15
X122 avss_ip.t9 avss_ip.t10 avss_ip.t2 sky130_fd_pr__res_xhigh_po_0p35 l=110
X123 dvdd_ip standby_ip dvdd.t162 dvdd.t161 sky130_fd_pr__pfet_01v8 ad=0.58 pd=4.29 as=1.16 ps=8.58 w=4 l=0.5
X124 a_16163_n2247# ena_ip dvdd.t70 dvdd.t48 sky130_fd_pr__pfet_01v8_hvt ad=0.1092 pd=1.36 as=0.07035 ps=0.755 w=0.42 l=0.15
X125 a_2132_n16918# a_18932_n17084# avss_ip.t3 sky130_fd_pr__res_xhigh_po_0p35 l=82
X126 dvdd.t101 x7.x2.Qb2 a_19955_n2791# dvdd.t60 sky130_fd_pr__pfet_01v8_hvt ad=0.0864 pd=0.91 as=0.1664 ps=1.8 w=0.64 l=0.15
X127 a_19003_n1943# ena_ip dvdd.t69 dvdd.t46 sky130_fd_pr__pfet_01v8_hvt ad=0.0567 pd=0.69 as=0.0819 ps=0.81 w=0.42 l=0.15
X128 inv_in.t4 xin_buf sky130_fd_pr__cap_mim_m3_1 l=10 w=10
X129 a_10620_n9334# a_24220_n9500# dvss_ip sky130_fd_pr__res_xhigh_po_0p35 l=66
X130 dvss.t126 a_21211_n2817# a_21775_n2791# dvss.t125 sky130_fd_pr__nfet_01v8 ad=0.10025 pd=0.985 as=0.1092 ps=1.36 w=0.42 l=0.15
X131 a_3134_n13324# vrb.t0 avss_ip.t0 sky130_fd_pr__res_xhigh_po_0p35 l=75
X132 dvdd_ip standby_ip dvdd.t160 dvdd.t159 sky130_fd_pr__pfet_01v8 ad=0.58 pd=4.29 as=0.58 ps=4.29 w=4 l=0.5
X133 a_16974_n2791# standby_b dvss.t62 dvss.t61 sky130_fd_pr__nfet_01v8 ad=0.06405 pd=0.725 as=0.12495 ps=1.015 w=0.42 l=0.15
X134 x7.x1.x2.Q a_16795_n1943# dvss.t14 dvss.t13 sky130_fd_pr__nfet_01v8 ad=0.169 pd=1.82 as=0.169 ps=1.82 w=0.65 l=0.15
X135 a_2132_n17582# a_18932_n17748# avss_ip.t3 sky130_fd_pr__res_xhigh_po_0p35 l=82
X136 dvdd.t16 x7.x1.x2.CLK a_15539_n2241# dvdd.t8 sky130_fd_pr__pfet_01v8_hvt ad=0.0864 pd=0.91 as=0.1664 ps=1.8 w=0.64 l=0.15
X137 dvdd_ip vbp tail dvdd_ip sky130_fd_pr__pfet_01v8 ad=0.58 pd=4.58 as=0.58 ps=4.58 w=2 l=2
X138 a_19182_n2791# standby_b dvss.t60 dvss.t59 sky130_fd_pr__nfet_01v8 ad=0.06405 pd=0.725 as=0.12495 ps=1.015 w=0.42 l=0.15
X139 dvss.t107 a_19003_n2817# a_18937_n2791# dvss.t106 sky130_fd_pr__nfet_01v8 ad=0.12495 pd=1.015 as=0.0669 ps=0.75 w=0.42 l=0.15
X140 avss_ip.t51 avss_ip.t49 avss_ip.t50 avss_ip.t19 sky130_fd_pr__nfet_g5v0d10v5 ad=1.16 pd=8.58 as=0 ps=0 w=4 l=2
X141 dvdd_ip dvss_ip sky130_fd_pr__cap_mim_m3_1 l=10 w=10
X142 dout_ip inv_m2 dvss_ip dvss_ip sky130_fd_pr__nfet_01v8 ad=0.145 pd=1.58 as=0.0725 ps=0.79 w=0.5 l=1
X143 a_15705_n2791# a_15539_n2791# dvdd.t36 dvdd.t35 sky130_fd_pr__pfet_01v8_hvt ad=0.1664 pd=1.8 as=0.0864 ps=0.91 w=0.64 l=0.15
X144 avdd.t15 x3.out_b.t5 x3.out.t2 avdd.t6 sky130_fd_pr__pfet_g5v0d10v5 ad=0.29 pd=2.58 as=0.29 ps=2.58 w=1 l=4
X145 dvdd.t174 a_16795_n2817# a_16782_n2425# dvdd.t10 sky130_fd_pr__pfet_01v8_hvt ad=0.0819 pd=0.81 as=0.0567 ps=0.69 w=0.42 l=0.15
X146 dvss.t163 a_21211_n1943# a_21775_n2247# dvss.t162 sky130_fd_pr__nfet_01v8 ad=0.10025 pd=0.985 as=0.1092 ps=1.36 w=0.42 l=0.15
X147 xout.t3 xin.t10 avss_ip.t20 avss_ip.t4 sky130_fd_pr__nfet_g5v0d10v5 ad=0.58 pd=4.29 as=0.58 ps=4.29 w=4 l=0.5
X148 avss_ip.t48 avss_ip.t46 avss_ip.t47 avss_ip.t8 sky130_fd_pr__nfet_g5v0d10v5 ad=1.16 pd=8.58 as=0 ps=0 w=4 l=2
X149 a_16974_n1881# ena_ip dvss.t94 dvss.t93 sky130_fd_pr__nfet_01v8 ad=0.06405 pd=0.725 as=0.12495 ps=1.015 w=0.42 l=0.15
X150 dvdd.t15 a_16795_n1943# a_17359_n2247# dvdd.t14 sky130_fd_pr__pfet_01v8_hvt ad=0.154 pd=1.335 as=0.1664 ps=1.8 w=0.64 l=0.15
X151 xin.t0 a_24530_n22338# avss_ip.t2 sky130_fd_pr__res_xhigh_po_0p35 l=110
X152 avss_ip.t14 x3.out.t3 avss.t15 avss.t14 sky130_fd_pr__nfet_g5v0d10v5 ad=0.58 pd=4.29 as=0.58 ps=4.29 w=4 l=0.5
X153 dvss.t207 x7.clk_disable dout_filt dvss.t206 sky130_fd_pr__nfet_01v8 ad=0.145 pd=1.58 as=0.145 ps=1.58 w=0.5 l=4
X154 a_16055_n2791# a_15539_n2791# a_15960_n2791# dvss.t37 sky130_fd_pr__special_nfet_01v8 ad=0.0594 pd=0.69 as=0.066 ps=0.745 w=0.36 l=0.15
X155 dvdd.t158 standby_ip dvdd_ip dvdd.t157 sky130_fd_pr__pfet_01v8 ad=0.58 pd=4.29 as=0.58 ps=4.29 w=4 l=0.5
X156 standby_33 x4.out_b.t3 avdd.t10 avdd.t4 sky130_fd_pr__pfet_g5v0d10v5 ad=0.29 pd=2.58 as=0.29 ps=2.58 w=1 l=4
X157 a_16055_n1869# a_15705_n2241# a_15960_n1881# dvdd.t5 sky130_fd_pr__pfet_01v8_hvt ad=0.07245 pd=0.765 as=0.0651 ps=0.73 w=0.42 l=0.15
X158 dvdd_ip vbp tail dvdd_ip sky130_fd_pr__pfet_01v8 ad=0.58 pd=4.58 as=0.58 ps=4.58 w=2 l=2
X159 a_20471_n2791# a_20121_n2791# a_20376_n2791# dvdd.t137 sky130_fd_pr__pfet_01v8_hvt ad=0.07245 pd=0.765 as=0.0651 ps=0.73 w=0.42 l=0.15
X160 avss_ip.t25 xout.t24 sky130_fd_pr__diode_pw2nd_05v5 perim=1.8e+06 area=2.025e+11
**devattr s=257843176,88584 d=257843176,88584
X161 tail vbp dvdd_ip dvdd_ip sky130_fd_pr__pfet_01v8 ad=0.58 pd=4.58 as=0.58 ps=4.58 w=2 l=2
X162 dvdd.t79 a_19003_n2817# a_18990_n2425# dvdd.t25 sky130_fd_pr__pfet_01v8_hvt ad=0.0819 pd=0.81 as=0.0567 ps=0.69 w=0.42 l=0.15
X163 a_10620_n9334# a_24220_n9168# dvss_ip sky130_fd_pr__res_xhigh_po_0p35 l=66
X164 a_19182_n1881# ena_ip dvss.t92 dvss.t91 sky130_fd_pr__nfet_01v8 ad=0.06405 pd=0.725 as=0.12495 ps=1.015 w=0.42 l=0.15
X165 avdd_ip.t20 vbreg xout.t16 avdd_ip.t5 sky130_fd_pr__pfet_g5v0d10v5 ad=1.16 pd=8.58 as=1.16 ps=8.58 w=4 l=2
X166 avss_ip.t21 xin.t11 xout.t4 avss_ip.t4 sky130_fd_pr__nfet_g5v0d10v5 ad=0.58 pd=4.29 as=0.58 ps=4.29 w=4 l=0.5
X167 xin_buf xout.t25 xin_buf dvdd_ip sky130_fd_pr__pfet_g5v0d10v5 ad=0.58 pd=4.29 as=2.32 ps=17.16 w=4 l=2
X168 a_3134_n13324# avss_ip.t1 avss_ip.t0 sky130_fd_pr__res_xhigh_po_0p35 l=75
X169 a_21036_n2791# a_19955_n2791# a_20689_n2549# dvdd.t86 sky130_fd_pr__pfet_01v8_hvt ad=0.0588 pd=0.7 as=0.12915 ps=1.185 w=0.42 l=0.15
X170 dvss.t32 a_19003_n1943# a_18937_n1869# dvss.t31 sky130_fd_pr__nfet_01v8 ad=0.12495 pd=1.015 as=0.0669 ps=0.75 w=0.42 l=0.15
X171 dvdd_ip dvss_ip sky130_fd_pr__cap_mim_m3_1 l=10 w=10
X172 a_18937_n2791# a_17747_n2791# a_18828_n2791# dvss.t191 sky130_fd_pr__special_nfet_01v8 ad=0.0669 pd=0.75 as=0.0711 ps=0.755 w=0.36 l=0.15
X173 dvss.t214 a_16795_n2817# a_17359_n2791# dvss.t213 sky130_fd_pr__nfet_01v8 ad=0.10025 pd=0.985 as=0.1092 ps=1.36 w=0.42 l=0.15
X174 a_16273_n2273# a_16055_n1869# dvss.t140 dvss.t139 sky130_fd_pr__nfet_01v8 ad=0.0999 pd=0.985 as=0.1346 ps=1.15 w=0.64 l=0.15
X175 dvdd.t135 a_16620_n1869# a_16795_n1943# dvdd.t110 sky130_fd_pr__pfet_01v8_hvt ad=0.2132 pd=1.67 as=0.0567 ps=0.69 w=0.42 l=0.15
X176 x7.x1.x2.Q a_16795_n1943# dvdd.t13 dvdd.t12 sky130_fd_pr__pfet_01v8_hvt ad=0.28 pd=2.56 as=0.2132 ps=1.67 w=1 l=0.15
X177 a_2130_n20512# a_24530_n20678# avss_ip.t2 sky130_fd_pr__res_xhigh_po_0p35 l=110
X178 avss_ip.t5 xin.t12 xout.t0 avss_ip.t4 sky130_fd_pr__nfet_g5v0d10v5 ad=0.58 pd=4.29 as=0.58 ps=4.29 w=4 l=0.5
X179 dvdd.t122 a_21036_n2791# a_21211_n2817# dvdd.t121 sky130_fd_pr__pfet_01v8_hvt ad=0.2132 pd=1.67 as=0.0567 ps=0.69 w=0.42 l=0.15
X180 x4.out_b.t2 standby_ip avss.t25 avss.t24 sky130_fd_pr__nfet_g5v0d10v5 ad=0.435 pd=3.29 as=0.87 ps=6.58 w=3 l=0.5
X181 a_18481_n2549# a_18263_n2791# dvdd.t165 dvdd.t99 sky130_fd_pr__pfet_01v8_hvt ad=0.12915 pd=1.185 as=0.2184 ps=2.2 w=0.84 l=0.15
X182 dvss_ip inv_m1 dvss_ip dvss_ip sky130_fd_pr__nfet_01v8 ad=0.145 pd=1.58 as=7.9025 ps=61.46 w=0.5 l=1
X183 ibias_ip ibias_ip dvss_ip dvss_ip sky130_fd_pr__nfet_g5v0d10v5 ad=0.58 pd=4.58 as=0.58 ps=4.58 w=2 l=2
X184 dvss.t8 x7.x2.x2.CLK a_15539_n2791# dvss.t7 sky130_fd_pr__nfet_01v8 ad=0.0567 pd=0.69 as=0.1092 ps=1.36 w=0.42 l=0.15
X185 xout.t1 xin.t13 avss_ip.t6 avss_ip.t4 sky130_fd_pr__nfet_g5v0d10v5 ad=0.58 pd=4.29 as=0.58 ps=4.29 w=4 l=0.5
X186 a_2132_n14926# a_18932_n15092# avss_ip.t3 sky130_fd_pr__res_xhigh_po_0p35 l=82
X187 dvdd.t171 x7.clk_disable a_14357_n2743# dvdd.t170 sky130_fd_pr__pfet_01v8_hvt ad=0.10855 pd=1.005 as=0.0672 ps=0.85 w=0.64 l=0.15
X188 vn vn vn dvss_ip sky130_fd_pr__nfet_01v8 ad=1.16 pd=8.58 as=2.32 ps=17.16 w=4 l=2
X189 a_20567_n2791# a_20121_n2791# a_20471_n2791# dvss.t184 sky130_fd_pr__special_nfet_01v8 ad=0.1401 pd=1.1 as=0.0594 ps=0.69 w=0.36 l=0.15
X190 dvdd.t156 standby_ip dvdd_ip dvdd.t155 sky130_fd_pr__pfet_01v8 ad=0.58 pd=4.29 as=0.58 ps=4.29 w=4 l=0.5
X191 dvss_ip dout_filt dout.t1 dvss_ip sky130_fd_pr__nfet_01v8 ad=0.2175 pd=2.08 as=0.2175 ps=2.08 w=0.75 l=1
X192 a_20471_n1869# a_19955_n2241# a_20376_n1881# dvss.t110 sky130_fd_pr__special_nfet_01v8 ad=0.0594 pd=0.69 as=0.066 ps=0.745 w=0.36 l=0.15
X193 a_18481_n2273# a_18263_n1869# dvdd.t100 dvdd.t99 sky130_fd_pr__pfet_01v8_hvt ad=0.12915 pd=1.185 as=0.2184 ps=2.2 w=0.84 l=0.15
X194 avss.t13 x3.out.t4 avss_ip.t13 avss.t12 sky130_fd_pr__nfet_g5v0d10v5 ad=0.58 pd=4.29 as=0.58 ps=4.29 w=4 l=0.5
X195 dvss.t12 a_16795_n1943# a_17359_n2247# dvss.t11 sky130_fd_pr__nfet_01v8 ad=0.10025 pd=0.985 as=0.1092 ps=1.36 w=0.42 l=0.15
X196 x7.x1.Qb1 a_17359_n2247# dvdd.t104 dvdd.t103 sky130_fd_pr__pfet_01v8_hvt ad=0.26 pd=2.52 as=0.154 ps=1.335 w=1 l=0.15
X197 dvdd_ip vbp tail dvdd_ip sky130_fd_pr__pfet_01v8 ad=0.58 pd=4.58 as=0.58 ps=4.58 w=2 l=2
X198 avss.t27 avdd.t18 sky130_fd_pr__cap_mim_m3_1 l=10 w=10
X199 x7.x2.x2.Q a_16795_n2817# dvdd.t173 dvdd.t12 sky130_fd_pr__pfet_01v8_hvt ad=0.28 pd=2.56 as=0.2132 ps=1.67 w=1 l=0.15
X200 a_14035_n2743# dout_ip dout_filt dvss.t82 sky130_fd_pr__nfet_01v8 ad=0.0441 pd=0.63 as=0.1092 ps=1.36 w=0.42 l=0.15
X201 dvss.t16 x7.x1.x2.CLK a_15539_n2241# dvss.t15 sky130_fd_pr__nfet_01v8 ad=0.0567 pd=0.69 as=0.1092 ps=1.36 w=0.42 l=0.15
X202 dout_ip inv_m2 dvss_ip dvss_ip sky130_fd_pr__nfet_01v8 ad=0.145 pd=1.58 as=0.0725 ps=0.79 w=0.5 l=1
X203 xin_buf vn dvss_ip dvss_ip sky130_fd_pr__nfet_01v8 ad=0.58 pd=4.29 as=0.58 ps=4.29 w=4 l=2
X204 avdd_ip.t18 vbreg vg1.t1 avdd_ip.t9 sky130_fd_pr__pfet_g5v0d10v5 ad=1.16 pd=8.58 as=1.16 ps=8.58 w=4 l=2
X205 a_2130_n19848# a_24530_n19682# avss_ip.t2 sky130_fd_pr__res_xhigh_po_0p35 l=110
X206 vrb.t3 vg2.t6 vbreg avss_ip.t8 sky130_fd_pr__nfet_g5v0d10v5 ad=1.16 pd=8.58 as=1.16 ps=8.58 w=4 l=2
X207 a_18828_n1869# a_17913_n2241# a_18481_n2273# dvss.t151 sky130_fd_pr__special_nfet_01v8 ad=0.0711 pd=0.755 as=0.0999 ps=0.985 w=0.36 l=0.15
X208 x7.x2.Qb1 a_17359_n2791# dvss.t178 dvss.t177 sky130_fd_pr__nfet_01v8 ad=0.169 pd=1.82 as=0.10025 ps=0.985 w=0.65 l=0.15
X209 a_2130_n20512# a_24530_n20346# avss_ip.t2 sky130_fd_pr__res_xhigh_po_0p35 l=110
X210 dvdd.t118 a_20689_n2273# a_20579_n2247# dvdd.t2 sky130_fd_pr__pfet_01v8_hvt ad=0.07035 pd=0.755 as=0.1155 ps=0.97 w=0.42 l=0.15
X211 x7.x1.x2.CLK a_15000_n1881# dvdd.t1 dvdd.t0 sky130_fd_pr__pfet_01v8_hvt ad=0.1696 pd=1.81 as=0.1841 ps=1.26 w=0.64 l=0.15
X212 dvdd_ip standby_ip dvdd.t154 dvdd.t153 sky130_fd_pr__pfet_01v8 ad=0.58 pd=4.29 as=0.58 ps=4.29 w=4 l=0.5
X213 a_2132_n14926# a_18932_n14760# avss_ip.t3 sky130_fd_pr__res_xhigh_po_0p35 l=82
X214 x7.x2.Qb1 a_17359_n2791# dvdd.t134 dvdd.t103 sky130_fd_pr__pfet_01v8_hvt ad=0.26 pd=2.52 as=0.154 ps=1.335 w=1 l=0.15
X215 x7.x1.x3.Q a_19003_n1943# dvss.t30 dvss.t29 sky130_fd_pr__nfet_01v8 ad=0.169 pd=1.82 as=0.169 ps=1.82 w=0.65 l=0.15
X216 xout.t8 xin.t14 avss_ip.t38 avss_ip.t4 sky130_fd_pr__nfet_g5v0d10v5 ad=0.58 pd=4.29 as=0.58 ps=4.29 w=4 l=0.5
X217 avdd.t1 x3.out_b.t6 avdd_ip.t0 avdd.t0 sky130_fd_pr__pfet_g5v0d10v5 ad=0.58 pd=4.29 as=0.58 ps=4.29 w=4 l=0.5
X218 a_16273_n2549# a_16055_n2791# dvss.t109 dvss.t108 sky130_fd_pr__nfet_01v8 ad=0.0999 pd=0.985 as=0.1346 ps=1.15 w=0.64 l=0.15
X219 a_16151_n2791# a_15705_n2791# a_16055_n2791# dvss.t203 sky130_fd_pr__special_nfet_01v8 ad=0.1401 pd=1.1 as=0.0594 ps=0.69 w=0.36 l=0.15
X220 vg1.t4 xin.t5 sky130_fd_pr__cap_mim_m3_1 l=22 w=22
X221 avss_ip.t39 xin.t15 xout.t9 avss_ip.t4 sky130_fd_pr__nfet_g5v0d10v5 ad=0.58 pd=4.29 as=0.58 ps=4.29 w=4 l=0.5
X222 dvss_ip inv_m1 inv_m2 dvss_ip sky130_fd_pr__nfet_01v8 ad=0.0725 pd=0.79 as=0.145 ps=1.58 w=0.5 l=1
X223 a_2130_n19184# a_24530_n19018# avss_ip.t2 sky130_fd_pr__res_xhigh_po_0p35 l=110
X224 dvdd_ip vbp dvdd_ip dvdd_ip sky130_fd_pr__pfet_01v8 ad=0.58 pd=4.58 as=0 ps=0 w=2 l=2
X225 inv_in.t5 xin_buf sky130_fd_pr__cap_mim_m3_1 l=10 w=10
X226 dvdd.t120 a_4857_n1521# standby_ip dvdd.t119 sky130_fd_pr__pfet_01v8_hvt ad=0.11455 pd=1.08 as=0.2054 ps=2.1 w=0.79 l=0.15
X227 a_14035_n1997# ena_ip a_14009_n2404# dvss.t21 sky130_fd_pr__nfet_01v8 ad=0.06825 pd=0.86 as=0.169 ps=1.82 w=0.65 l=0.15
X228 a_17913_n2791# a_17747_n2791# dvdd.t140 dvdd.t128 sky130_fd_pr__pfet_01v8_hvt ad=0.1664 pd=1.8 as=0.0864 ps=0.91 w=0.64 l=0.15
X229 a_4857_n1521# standby.t2 dvss.t170 dvss.t155 sky130_fd_pr__nfet_01v8 ad=0.1352 pd=1.56 as=0.0754 ps=0.81 w=0.52 l=0.15
X230 a_10620_n9002# a_24220_n9168# dvss_ip sky130_fd_pr__res_xhigh_po_0p35 l=66
X231 a_18263_n2791# a_17747_n2791# a_18168_n2791# dvss.t190 sky130_fd_pr__special_nfet_01v8 ad=0.0594 pd=0.69 as=0.066 ps=0.745 w=0.36 l=0.15
X232 a_14009_n2404# standby_b a_14035_n2281# dvss.t21 sky130_fd_pr__nfet_01v8 ad=0.169 pd=1.82 as=0.10725 ps=0.98 w=0.65 l=0.15
X233 a_16620_n1869# a_15539_n2241# a_16273_n2273# dvdd.t34 sky130_fd_pr__pfet_01v8_hvt ad=0.0588 pd=0.7 as=0.12915 ps=1.185 w=0.42 l=0.15
X234 a_18263_n1869# a_17913_n2241# a_18168_n1881# dvdd.t117 sky130_fd_pr__pfet_01v8_hvt ad=0.07245 pd=0.765 as=0.0651 ps=0.73 w=0.42 l=0.15
X235 a_10620_n9002# a_24220_n8836# dvss_ip sky130_fd_pr__res_xhigh_po_0p35 l=66
X236 dvdd.t61 x7.x1.Qb2 a_19955_n2241# dvdd.t60 sky130_fd_pr__pfet_01v8_hvt ad=0.0864 pd=0.91 as=0.1664 ps=1.8 w=0.64 l=0.15
X237 a_2130_n20180# a_24530_n20346# avss_ip.t2 sky130_fd_pr__res_xhigh_po_0p35 l=110
X238 dvdd_ip dvss_ip sky130_fd_pr__cap_mim_m3_1 l=10 w=10
X239 x3.out_b.t2 x3.out.t5 avdd.t7 avdd.t6 sky130_fd_pr__pfet_g5v0d10v5 ad=0.29 pd=2.58 as=0.29 ps=2.58 w=1 l=4
X240 xout.t6 xin.t16 avss_ip.t36 avss_ip.t4 sky130_fd_pr__nfet_g5v0d10v5 ad=0.58 pd=4.29 as=0.58 ps=4.29 w=4 l=0.5
X241 avdd.t5 standby_33 x4.out_b.t0 avdd.t4 sky130_fd_pr__pfet_g5v0d10v5 ad=0.29 pd=2.58 as=0.29 ps=2.58 w=1 l=4
X242 a_20579_n2247# a_19955_n2241# a_20471_n1869# dvdd.t83 sky130_fd_pr__pfet_01v8_hvt ad=0.1155 pd=0.97 as=0.07245 ps=0.765 w=0.42 l=0.15
X243 dvdd.t77 a_16273_n2273# a_16163_n2247# dvdd.t76 sky130_fd_pr__pfet_01v8_hvt ad=0.07035 pd=0.755 as=0.1155 ps=0.97 w=0.42 l=0.15
X244 a_15000_n2791# dout_ip dvdd.t64 dvdd.t63 sky130_fd_pr__pfet_01v8_hvt ad=0.0609 pd=0.71 as=0.1113 ps=1.37 w=0.42 l=0.15
X245 dvdd.t115 a_18828_n1869# a_19003_n1943# dvdd.t114 sky130_fd_pr__pfet_01v8_hvt ad=0.2132 pd=1.67 as=0.0567 ps=0.69 w=0.42 l=0.15
X246 a_2130_n22172# a_24530_n22006# avss_ip.t2 sky130_fd_pr__res_xhigh_po_0p35 l=110
X247 avss_ip.t37 xin.t17 xout.t7 avss_ip.t4 sky130_fd_pr__nfet_g5v0d10v5 ad=0.58 pd=4.29 as=0.58 ps=4.29 w=4 l=0.5
X248 avdd_ip.t31 avss_ip.t34 sky130_fd_pr__cap_mim_m3_1 l=7 w=7
X249 a_15705_n2241# a_15539_n2241# dvdd.t41 dvdd.t35 sky130_fd_pr__pfet_01v8_hvt ad=0.1664 pd=1.8 as=0.0864 ps=0.91 w=0.64 l=0.15
X250 a_2130_n21840# a_24530_n22006# avss_ip.t2 sky130_fd_pr__res_xhigh_po_0p35 l=110
X251 avdd_ip.t17 vbreg xout.t15 avdd_ip.t5 sky130_fd_pr__pfet_g5v0d10v5 ad=1.16 pd=8.58 as=1.16 ps=8.58 w=4 l=2
X252 dvdd.t97 x7.x2.Qb1 a_17747_n2791# dvdd.t89 sky130_fd_pr__pfet_01v8_hvt ad=0.0864 pd=0.91 as=0.1664 ps=1.8 w=0.64 l=0.15
X253 a_2132_n16586# a_18932_n16420# avss_ip.t3 sky130_fd_pr__res_xhigh_po_0p35 l=82
X254 avss_ip.t27 xin.t18 avss_ip.t26 avss_ip.t4 sky130_fd_pr__nfet_g5v0d10v5 ad=1.16 pd=8.58 as=0 ps=0 w=4 l=0.5
X255 a_10620_n8670# a_24220_n8836# dvss_ip sky130_fd_pr__res_xhigh_po_0p35 l=66
X256 xin_buf vn xin_buf dvss_ip sky130_fd_pr__nfet_01v8 ad=0.58 pd=4.29 as=2.32 ps=17.16 w=4 l=2
X257 x7.x1.Qb2 a_19567_n2247# dvdd.t57 dvdd.t56 sky130_fd_pr__pfet_01v8_hvt ad=0.26 pd=2.52 as=0.154 ps=1.335 w=1 l=0.15
X258 a_2132_n17250# a_18932_n17084# avss_ip.t3 sky130_fd_pr__res_xhigh_po_0p35 l=82
X259 a_14009_n2701# x7.clk_disable dvdd.t169 dvdd.t168 sky130_fd_pr__pfet_01v8_hvt ad=0.1092 pd=1.36 as=0.10855 ps=1.005 w=0.42 l=0.15
X260 dvss.t136 x7.x2.Qb2 a_19955_n2791# dvss.t135 sky130_fd_pr__nfet_01v8 ad=0.0567 pd=0.69 as=0.1092 ps=1.36 w=0.42 l=0.15
X261 dvss.t194 standby_ip dout_ip dvss.t193 sky130_fd_pr__nfet_01v8 ad=0.145 pd=1.58 as=0.145 ps=1.58 w=0.5 l=4
X262 dvss_ip ibias_ip vbp dvss_ip sky130_fd_pr__nfet_g5v0d10v5 ad=0.58 pd=4.58 as=0.58 ps=4.58 w=2 l=2
X263 inv_in.t6 xin_buf sky130_fd_pr__cap_mim_m3_1 l=10 w=10
X264 a_22601_n15524# vbreg a_22601_n15524# avdd_ip.t9 sky130_fd_pr__pfet_g5v0d10v5 ad=1.16 pd=8.58 as=2.32 ps=17.16 w=4 l=2
X265 a_20579_n2425# standby_b dvdd.t53 dvdd.t52 sky130_fd_pr__pfet_01v8_hvt ad=0.1092 pd=1.36 as=0.07035 ps=0.755 w=0.42 l=0.15
X266 a_16163_n2247# a_15539_n2241# a_16055_n1869# dvdd.t33 sky130_fd_pr__pfet_01v8_hvt ad=0.1155 pd=0.97 as=0.07245 ps=0.765 w=0.42 l=0.15
X267 avss_ip.t28 xin.t19 xout.t5 avss_ip.t4 sky130_fd_pr__nfet_g5v0d10v5 ad=0.58 pd=4.29 as=0.58 ps=4.29 w=4 l=0.5