* PEX produced on Wed Apr 17 10:14:11 EDT 2024 using /home/brady/sources/osic-multitool-src/iic-pex.sh with m=3 and s=1
* NGSPICE file created from sky130_be_ip__lsxo.ext - technology: sky130A

.subckt sky130_be_ip__lsxo ibias dout xout xin ena avss avdd standby dvss dvdd
X0 a_16620_n1869.t2 a_15705_n2241.t2 a_16273_n2273.t2 dvss.t177 sky130_fd_pr__special_nfet_01v8 ad=0.0711 pd=0.755 as=0.0999 ps=0.985 w=0.36 l=0.15
X1 a_20376_n2791.t0 x7.stby_done_b.t2 dvdd.t18 dvdd.t17 sky130_fd_pr__pfet_01v8_hvt ad=0.0651 pd=0.73 as=0.1092 ps=1.36 w=0.42 l=0.15
X2 a_21036_n1869.t2 a_19955_n2241.t2 a_20689_n2273.t2 dvdd.t70 sky130_fd_pr__pfet_01v8_hvt ad=0.0588 pd=0.7 as=0.12915 ps=1.185 w=0.42 l=0.15
X3 a_10620_n8338.t0 a_24220_n8172.t0 dvss_ip sky130_fd_pr__res_xhigh_po_0p35 l=66
X4 a_16795_n2817.t0 a_16620_n2791.t4 a_16974_n2791.t0 dvss.t66 sky130_fd_pr__nfet_01v8 ad=0.1092 pd=1.36 as=0.06405 ps=0.725 w=0.42 l=0.15
X5 dvdd.t5 ena_ip.t2 x3.in_b.t0 dvdd.t4 sky130_fd_pr__pfet_01v8 ad=0.29 pd=2.58 as=0.29 ps=2.58 w=1 l=1
X6 dvdd.t46 a_21036_n1869.t4 a_21211_n1943.t0 dvdd.t8 sky130_fd_pr__pfet_01v8_hvt ad=0.2132 pd=1.67 as=0.0567 ps=0.69 w=0.42 l=0.15
X7 a_18828_n2791.t1 a_17913_n2791.t2 a_18481_n2549.t1 dvss.t72 sky130_fd_pr__special_nfet_01v8 ad=0.0711 pd=0.755 as=0.0999 ps=0.985 w=0.36 l=0.15
X8 a_2130_n19848.t0 a_24530_n20014.t0 avss_ip sky130_fd_pr__res_xhigh_po_0p35 l=110
X9 vbreg.t5 icnode.t0 a_11526_n12394.t1 avss_ip sky130_fd_pr__nfet_g5v0d10v5 ad=0.1218 pd=1.42 as=0.0609 ps=0.71 w=0.42 l=8
X10 x7.x2.x2.CLK.t1 a_15000_n2791.t3 dvss.t78 dvss.t77 sky130_fd_pr__nfet_01v8 ad=0.1113 pd=1.37 as=0.0966 ps=0.88 w=0.42 l=0.15
X11 a_18168_n1881.t1 x7.x1.Qb2.t2 dvss.t99 dvss.t98 sky130_fd_pr__nfet_01v8 ad=0.066 pd=0.745 as=0.2205 ps=1.89 w=0.42 l=0.15
X12 tail.t9 vbp.t1 dvdd_ip.t33 dvdd_ip.t23 sky130_fd_pr__pfet_01v8 ad=0.58 pd=4.58 as=0.58 ps=4.58 w=2 l=2
X13 a_16317_n2791.t0 a_16273_n2549.t4 a_16151_n2791.t0 dvss.t90 sky130_fd_pr__nfet_01v8 ad=0.0441 pd=0.63 as=0.1401 ps=1.1 w=0.42 l=0.15
X14 dvss.t164 standby_b.t0 dvss_ip dvss.t163 sky130_fd_pr__nfet_01v8 ad=0.58 pd=4.29 as=0.58 ps=4.29 w=4 l=0.5
X15 a_9120_n9346.t4 a_24220_n9832.t1 dvss_ip sky130_fd_pr__res_xhigh_po_0p35 l=66
X16 a_16795_n1943.t1 a_16620_n1869.t4 a_16974_n1881.t0 dvss.t9 sky130_fd_pr__nfet_01v8 ad=0.1092 pd=1.36 as=0.06405 ps=0.725 w=0.42 l=0.15
X17 x7.ena_done_b.t0 a_21775_n2247.t2 dvdd.t166 dvdd.t58 sky130_fd_pr__pfet_01v8_hvt ad=0.26 pd=2.52 as=0.154 ps=1.335 w=1 l=0.15
X18 dvdd_ip.t56 dvss_ip sky130_fd_pr__cap_mim_m3_1 l=10 w=10
X19 a_20121_n2241.t0 a_19955_n2241.t3 dvdd.t71 dvdd.t20 sky130_fd_pr__pfet_01v8_hvt ad=0.1664 pd=1.8 as=0.0864 ps=0.91 w=0.64 l=0.15
X20 a_2130_n21176.t1 a_24530_n21342.t1 avss_ip sky130_fd_pr__res_xhigh_po_0p35 l=110
X21 ibias_ip.t10 standby_33.t3 ibias.t1 ibias.t0 sky130_fd_pr__pfet_g5v0d10v5 ad=1.16 pd=8.58 as=1.16 ps=8.58 w=4 l=0.5
X22 xout.t22 vbreg.t9 avdd_ip.t28 avdd_ip.t11 sky130_fd_pr__pfet_g5v0d10v5 ad=1.16 pd=8.58 as=1.16 ps=8.58 w=4 l=2
X23 inv_m1.t1 inv_in.t1 dvdd_ip.t42 dvdd_ip.t41 sky130_fd_pr__pfet_01v8 ad=0.145 pd=1.58 as=0.145 ps=1.58 w=0.5 l=8
X24 a_2132_n15590.t0 a_18932_n15756.t0 avss_ip sky130_fd_pr__res_xhigh_po_0p35 l=82
X25 dout_ip.t3 inv_m2.t2 dvdd_ip.t4 dvdd_ip.t0 sky130_fd_pr__pfet_01v8 ad=0.145 pd=1.58 as=0.0725 ps=0.79 w=0.5 l=1
X26 a_20733_n2791.t1 a_20689_n2549.t4 a_20567_n2791.t0 dvss.t0 sky130_fd_pr__nfet_01v8 ad=0.0441 pd=0.63 as=0.1401 ps=1.1 w=0.42 l=0.15
X27 inv_in.t2 xin_buf.t3 sky130_fd_pr__cap_mim_m3_1 l=10 w=10
X28 x7.x1.x2.CLK.t1 a_15000_n1881.t3 dvss.t20 dvss.t19 sky130_fd_pr__nfet_01v8 ad=0.1113 pd=1.37 as=0.0966 ps=0.88 w=0.42 l=0.15
X29 avdd_ip.t29 avss_ip sky130_fd_pr__cap_mim_m3_1 l=7 w=7
X30 a_16317_n1881.t1 a_16273_n2273.t4 a_16151_n1869.t0 dvss.t45 sky130_fd_pr__nfet_01v8 ad=0.0441 pd=0.63 as=0.1401 ps=1.1 w=0.42 l=0.15
X31 x7.stby_done_b.t1 a_21775_n2791.t2 dvss.t210 dvss.t209 sky130_fd_pr__nfet_01v8 ad=0.169 pd=1.82 as=0.10025 ps=0.985 w=0.65 l=0.15
X32 a_14009_n2701.t1 x7.clk_disable.t2 dvss.t84 dvss.t83 sky130_fd_pr__nfet_01v8 ad=0.1092 pd=1.36 as=0.07665 ps=0.785 w=0.42 l=0.15
X33 dvss.t31 standby_ip.t2 x4.in_b dvss.t30 sky130_fd_pr__nfet_01v8 ad=0.29 pd=2.58 as=0.29 ps=2.58 w=1 l=1
X34 dvss.t42 a_2971_n1521.t2 ena_ip.t0 dvss.t41 sky130_fd_pr__nfet_01v8 ad=0.0754 pd=0.81 as=0.1352 ps=1.56 w=0.52 l=0.15
X35 dvss.t166 standby_b.t1 a_16317_n2791.t1 dvss.t165 sky130_fd_pr__nfet_01v8 ad=0.1346 pd=1.15 as=0.0441 ps=0.63 w=0.42 l=0.15
X36 avdd_ip.t30 avss_ip sky130_fd_pr__cap_mim_m3_1 l=7 w=7
X37 dvdd_ip.t56 dvss_ip sky130_fd_pr__cap_mim_m3_1 l=10 w=10
X38 dvss.t193 x7.ena_done_b.t2 a_14035_n1997.t1 dvss.t33 sky130_fd_pr__nfet_01v8 ad=0.10725 pd=0.98 as=0.06825 ps=0.86 w=0.65 l=0.15
X39 x7.stby_done_b.t0 a_21775_n2791.t3 dvdd.t59 dvdd.t58 sky130_fd_pr__pfet_01v8_hvt ad=0.26 pd=2.52 as=0.154 ps=1.335 w=1 l=0.15
X40 a_2132_n17582.t1 a_18932_n17416.t1 avss_ip sky130_fd_pr__res_xhigh_po_0p35 l=82
X41 inv_m1.t0 inv_in.t3 dvss_ip dvss_ip sky130_fd_pr__nfet_01v8 ad=0.145 pd=1.58 as=0.145 ps=1.58 w=0.5 l=8
X42 avss.t26 avdd.t14 sky130_fd_pr__cap_mim_m3_1 l=10 w=10
X43 a_10620_n9666.t0 a_24220_n9832.t0 dvss_ip sky130_fd_pr__res_xhigh_po_0p35 l=66
X44 a_20733_n1881.t0 a_20689_n2273.t4 a_20567_n1869.t0 dvss.t131 sky130_fd_pr__nfet_01v8 ad=0.0441 pd=0.63 as=0.1401 ps=1.1 w=0.42 l=0.15
X45 dvdd.t110 x7.x2.x2.CLK.t2 a_15539_n2791.t0 dvdd.t109 sky130_fd_pr__pfet_01v8_hvt ad=0.0864 pd=0.91 as=0.1664 ps=1.8 w=0.64 l=0.15
X46 a_16782_n2425.t1 a_15705_n2791.t2 a_16620_n2791.t0 dvdd.t57 sky130_fd_pr__pfet_01v8_hvt ad=0.0567 pd=0.69 as=0.0588 ps=0.7 w=0.42 l=0.15
X47 dvdd_ip.t53 inv_m1.t2 inv_m2.t1 dvdd_ip.t35 sky130_fd_pr__pfet_01v8 ad=0.0725 pd=0.79 as=0.145 ps=1.58 w=0.5 l=1
X48 a_4857_n1521.t0 standby.t0 dvdd.t38 dvdd.t37 sky130_fd_pr__pfet_01v8_hvt ad=0.2054 pd=2.1 as=0.11455 ps=1.08 w=0.79 l=0.15
X49 avdd_ip.t4 x3.out_b.t3 avdd.t16 avdd.t15 sky130_fd_pr__pfet_g5v0d10v5 ad=0.58 pd=4.29 as=0.58 ps=4.29 w=4 l=0.5
X50 dvdd_ip.t56 dvss_ip sky130_fd_pr__cap_mim_m3_1 l=10 w=10
X51 a_20121_n2791.t1 a_19955_n2791.t2 dvss.t213 dvss.t212 sky130_fd_pr__nfet_01v8 ad=0.1092 pd=1.36 as=0.0567 ps=0.69 w=0.42 l=0.15
X52 dvss.t4 ena_ip.t3 a_16317_n1881.t0 dvss.t3 sky130_fd_pr__nfet_01v8 ad=0.1346 pd=1.15 as=0.0441 ps=0.63 w=0.42 l=0.15
X53 x7.x1.Qb2.t0 a_19567_n2247.t2 dvss.t74 dvss.t73 sky130_fd_pr__nfet_01v8 ad=0.169 pd=1.82 as=0.10025 ps=0.985 w=0.65 l=0.15
X54 dvss.t190 ena.t0 sky130_fd_pr__diode_pw2nd_05v5 perim=1.8e+06 area=2.025e+11
X55 dvdd.t139 a_19003_n2817.t3 a_19567_n2791.t0 dvdd.t120 sky130_fd_pr__pfet_01v8_hvt ad=0.154 pd=1.335 as=0.1664 ps=1.8 w=0.64 l=0.15
X56 avss_ip vg1.t1 vg1.t2 avss_ip sky130_fd_pr__nfet_g5v0d10v5 ad=1.16 pd=8.58 as=1.16 ps=8.58 w=4 l=2
X57 a_21145_n1869.t0 a_19955_n2241.t4 a_21036_n1869.t3 dvss.t95 sky130_fd_pr__special_nfet_01v8 ad=0.0669 pd=0.75 as=0.0711 ps=0.755 w=0.36 l=0.15
X58 avdd_ip.t21 vbreg.t10 avdd_ip.t20 avdd_ip.t11 sky130_fd_pr__pfet_g5v0d10v5 ad=1.16 pd=8.58 as=0 ps=0 w=4 l=2
X59 a_21211_n2817.t2 standby_b.t2 dvdd.t106 dvdd.t105 sky130_fd_pr__pfet_01v8_hvt ad=0.0567 pd=0.69 as=0.0819 ps=0.81 w=0.42 l=0.15
X60 avss_ip xin.t6 avss_ip avss_ip sky130_fd_pr__nfet_g5v0d10v5 ad=0.58 pd=4.29 as=23.6118 ps=175.6 w=4 l=0.5
X61 a_19003_n2817.t2 a_18828_n2791.t4 a_19182_n2791.t1 dvss.t124 sky130_fd_pr__nfet_01v8 ad=0.1092 pd=1.36 as=0.06405 ps=0.725 w=0.42 l=0.15
X62 a_15000_n1881.t1 dout_ip.t4 dvdd.t114 dvdd.t113 sky130_fd_pr__pfet_01v8_hvt ad=0.0609 pd=0.71 as=0.1113 ps=1.37 w=0.42 l=0.15
X63 a_2132_n17250.t1 a_18932_n17416.t0 avss_ip sky130_fd_pr__res_xhigh_po_0p35 l=82
X64 a_20121_n2241.t1 a_19955_n2241.t5 dvss.t97 dvss.t96 sky130_fd_pr__nfet_01v8 ad=0.1092 pd=1.36 as=0.0567 ps=0.69 w=0.42 l=0.15
X65 dvss_ip ibias_ip.t11 dvss_ip dvss_ip sky130_fd_pr__nfet_g5v0d10v5 ad=0.58 pd=4.58 as=5.8 ps=45.8 w=2 l=2
X66 a_10620_n9666.t1 a_24220_n9500.t1 dvss_ip sky130_fd_pr__res_xhigh_po_0p35 l=66
X67 a_18359_n1869.t0 a_17913_n2241.t2 a_18263_n1869.t2 dvss.t182 sky130_fd_pr__special_nfet_01v8 ad=0.1401 pd=1.1 as=0.0594 ps=0.69 w=0.36 l=0.15
X68 xout.t21 vbreg.t11 avdd_ip.t27 avdd_ip.t7 sky130_fd_pr__pfet_g5v0d10v5 ad=1.16 pd=8.58 as=1.16 ps=8.58 w=4 l=2
X69 avss_ip avss_ip avss_ip sky130_fd_pr__res_xhigh_po_0p35 l=75
X70 vbreg.t8 vg2.t5 vrb.t4 avss_ip sky130_fd_pr__nfet_g5v0d10v5 ad=1.16 pd=8.58 as=1.16 ps=8.58 w=4 l=2
X71 a_18525_n2791.t0 a_18481_n2549.t4 a_18359_n2791.t0 dvss.t23 sky130_fd_pr__nfet_01v8 ad=0.0441 pd=0.63 as=0.1401 ps=1.1 w=0.42 l=0.15
X72 a_2130_n20844.t1 a_24530_n21010.t1 avss_ip sky130_fd_pr__res_xhigh_po_0p35 l=110
X73 a_15083_n2791.t1 dout_ip.t5 a_15000_n2791.t1 dvss.t102 sky130_fd_pr__nfet_01v8 ad=0.0441 pd=0.63 as=0.1113 ps=1.37 w=0.42 l=0.15
X74 a_21036_n1869.t0 a_20121_n2241.t2 a_20689_n2273.t1 dvss.t44 sky130_fd_pr__special_nfet_01v8 ad=0.0711 pd=0.755 as=0.0999 ps=0.985 w=0.36 l=0.15
X75 dvss_ip standby_b.t3 dvss.t76 dvss.t75 sky130_fd_pr__nfet_01v8 ad=0.58 pd=4.29 as=0.58 ps=4.29 w=4 l=0.5
X76 a_2132_n15590.t1 a_18932_n15424.t1 avss_ip sky130_fd_pr__res_xhigh_po_0p35 l=82
X77 a_14285_n2079.t1 x7.ena_done_b.t3 a_14285_n2281.t3 dvdd.t160 sky130_fd_pr__pfet_01v8_hvt ad=0.135 pd=1.27 as=0.135 ps=1.27 w=1 l=0.15
X78 a_19003_n1943.t2 a_18828_n1869.t4 a_19182_n1881.t1 dvss.t69 sky130_fd_pr__nfet_01v8 ad=0.1092 pd=1.36 as=0.06405 ps=0.725 w=0.42 l=0.15
X79 vn.t6 xin.t7 vn.t5 dvdd_ip.t49 sky130_fd_pr__pfet_g5v0d10v5 ad=1.16 pd=8.58 as=0 ps=0 w=4 l=2
X80 avss.t7 standby_b.t4 standby_33.t2 avss.t6 sky130_fd_pr__nfet_g5v0d10v5 ad=0.87 pd=6.58 as=0.435 ps=3.29 w=3 l=0.5
X81 a_10620_n7674.t1 a_24220_n7840.t1 dvss_ip sky130_fd_pr__res_xhigh_po_0p35 l=66
X82 ibias_ip.t9 ibias_ip.t8 dvss_ip dvss_ip sky130_fd_pr__nfet_g5v0d10v5 ad=0.58 pd=4.58 as=0.58 ps=4.58 w=2 l=2
X83 avdd.t5 x3.out_b.t4 avdd_ip.t0 avdd.t4 sky130_fd_pr__pfet_g5v0d10v5 ad=1.16 pd=8.58 as=0.58 ps=4.29 w=4 l=0.5
X84 a_15960_n2791.t1 x7.x2.Qb1.t2 dvdd.t140 dvdd.t41 sky130_fd_pr__pfet_01v8_hvt ad=0.0651 pd=0.73 as=0.1092 ps=1.36 w=0.42 l=0.15
X85 a_2130_n19516.t0 a_24530_n19682.t0 avss_ip sky130_fd_pr__res_xhigh_po_0p35 l=110
X86 xin.t8 avdd_ip.t5 sky130_fd_pr__diode_pd2nw_05v5 perim=1.8e+06 area=2.025e+11
X87 a_20579_n2247.t1 ena_ip.t4 dvdd.t167 dvdd.t47 sky130_fd_pr__pfet_01v8_hvt ad=0.1092 pd=1.36 as=0.07035 ps=0.755 w=0.42 l=0.15
X88 dvdd.t83 a_2971_n1521.t3 ena_ip.t1 dvdd.t82 sky130_fd_pr__pfet_01v8_hvt ad=0.11455 pd=1.08 as=0.2054 ps=2.1 w=0.79 l=0.15
X89 dvdd_ip.t56 dvss_ip sky130_fd_pr__cap_mim_m3_1 l=10 w=10
X90 a_15083_n1881.t1 dout_ip.t6 a_15000_n1881.t2 dvss.t171 sky130_fd_pr__nfet_01v8 ad=0.0441 pd=0.63 as=0.1113 ps=1.37 w=0.42 l=0.15
X91 a_18525_n1881.t1 a_18481_n2273.t4 a_18359_n1869.t1 dvss.t154 sky130_fd_pr__nfet_01v8 ad=0.0441 pd=0.63 as=0.1401 ps=1.1 w=0.42 l=0.15
X92 a_18168_n2791.t1 x7.x2.Qb2.t2 dvdd.t23 dvdd.t22 sky130_fd_pr__pfet_01v8_hvt ad=0.0651 pd=0.73 as=0.1092 ps=1.36 w=0.42 l=0.15
X93 dvss.t65 standby_b.t5 a_18525_n2791.t1 dvss.t64 sky130_fd_pr__nfet_01v8 ad=0.1346 pd=1.15 as=0.0441 ps=0.63 w=0.42 l=0.15
X94 xin_buf.t1 xout.t23 tail.t11 dvdd_ip.t54 sky130_fd_pr__pfet_g5v0d10v5 ad=0.58 pd=4.29 as=0.58 ps=4.29 w=4 l=2
X95 a_16273_n2549.t0 a_16055_n2791.t4 dvdd.t89 dvdd.t88 sky130_fd_pr__pfet_01v8_hvt ad=0.12915 pd=1.185 as=0.2184 ps=2.2 w=0.84 l=0.15
X96 dvss.t123 x7.stby_done_b.t3 a_15083_n2791.t0 dvss.t122 sky130_fd_pr__nfet_01v8 ad=0.0966 pd=0.88 as=0.0441 ps=0.63 w=0.42 l=0.15
X97 xout.t2 xin.t9 avss_ip avss_ip sky130_fd_pr__nfet_g5v0d10v5 ad=0.58 pd=4.29 as=0.58 ps=4.29 w=4 l=0.5
X98 x7.x1.x4.Q.t1 a_21211_n1943.t3 dvss.t113 dvss.t112 sky130_fd_pr__nfet_01v8 ad=0.169 pd=1.82 as=0.169 ps=1.82 w=0.65 l=0.15
X99 dvdd.t16 x7.stby_done_b.t4 a_15000_n2791.t0 dvdd.t15 sky130_fd_pr__pfet_01v8_hvt ad=0.1841 pd=1.26 as=0.0609 ps=0.71 w=0.42 l=0.15
X100 a_14009_n2404.t2 standby_ip.t3 a_14285_n2079.t2 dvdd.t43 sky130_fd_pr__pfet_01v8_hvt ad=0.26 pd=2.52 as=0.135 ps=1.27 w=1 l=0.15
X101 dvss_ip standby_b.t6 dvss.t158 dvss.t157 sky130_fd_pr__nfet_01v8 ad=0.58 pd=4.29 as=1.16 ps=8.58 w=4 l=0.5
X102 avdd_ip.t26 vbreg.t12 xout.t20 avdd_ip.t11 sky130_fd_pr__pfet_g5v0d10v5 ad=1.16 pd=8.58 as=1.16 ps=8.58 w=4 l=2
X103 tail.t8 vbp.t2 dvdd_ip.t32 dvdd_ip.t13 sky130_fd_pr__pfet_01v8 ad=0.58 pd=4.58 as=0.58 ps=4.58 w=2 l=2
X104 a_2130_n20844.t0 a_24530_n20678.t0 avss_ip sky130_fd_pr__res_xhigh_po_0p35 l=110
X105 a_16729_n1869.t1 a_15539_n2241.t2 a_16620_n1869.t3 dvss.t194 sky130_fd_pr__special_nfet_01v8 ad=0.0669 pd=0.75 as=0.0711 ps=0.755 w=0.36 l=0.15
X106 avss_ip vg2.t3 sky130_fd_pr__cap_mim_m3_1 l=18 w=18
X107 dvdd_ip.t31 vbp.t3 dvdd_ip.t30 dvdd_ip.t10 sky130_fd_pr__pfet_01v8 ad=0.58 pd=4.58 as=0 ps=0 w=2 l=2
X108 a_16273_n2273.t3 a_16055_n1869.t4 dvdd.t162 dvdd.t88 sky130_fd_pr__pfet_01v8_hvt ad=0.12915 pd=1.185 as=0.2184 ps=2.2 w=0.84 l=0.15
X109 a_2132_n15258.t0 a_18932_n15424.t0 avss_ip sky130_fd_pr__res_xhigh_po_0p35 l=82
X110 a_18990_n2425.t1 a_17913_n2791.t3 a_18828_n2791.t2 dvdd.t104 sky130_fd_pr__pfet_01v8_hvt ad=0.0567 pd=0.69 as=0.0588 ps=0.7 w=0.42 l=0.15
X111 a_14285_n2281.t0 x7.stby_done_b.t5 dvdd.t14 dvdd.t13 sky130_fd_pr__pfet_01v8_hvt ad=0.165 pd=1.33 as=0.1575 ps=1.315 w=1 l=0.15
X112 avdd_ip.t25 vbreg.t13 avdd_ip.t24 avdd_ip.t7 sky130_fd_pr__pfet_g5v0d10v5 ad=1.16 pd=8.58 as=0 ps=0 w=4 l=2
X113 dvss.t201 ena_ip.t5 a_18525_n1881.t0 dvss.t200 sky130_fd_pr__nfet_01v8 ad=0.1346 pd=1.15 as=0.0441 ps=0.63 w=0.42 l=0.15
X114 dvdd.t124 a_21211_n1943.t4 a_21775_n2247.t0 dvdd.t31 sky130_fd_pr__pfet_01v8_hvt ad=0.154 pd=1.335 as=0.1664 ps=1.8 w=0.64 l=0.15
X115 dvss.t144 x7.ena_done_b.t4 a_15083_n1881.t0 dvss.t143 sky130_fd_pr__nfet_01v8 ad=0.0966 pd=0.88 as=0.0441 ps=0.63 w=0.42 l=0.15
X116 dvdd_ip.t56 dvss_ip sky130_fd_pr__cap_mim_m3_1 l=10 w=10
X117 a_16795_n1943.t2 ena_ip.t6 dvdd.t127 dvdd.t126 sky130_fd_pr__pfet_01v8_hvt ad=0.0567 pd=0.69 as=0.0819 ps=0.81 w=0.42 l=0.15
X118 dvss.t108 standby.t1 sky130_fd_pr__diode_pw2nd_05v5 perim=1.8e+06 area=2.025e+11
X119 dvss.t160 standby_b.t7 dvss_ip dvss.t159 sky130_fd_pr__nfet_01v8 ad=0.58 pd=4.29 as=0.58 ps=4.29 w=4 l=0.5
X120 a_2130_n19516.t1 a_24530_n19350.t0 avss_ip sky130_fd_pr__res_xhigh_po_0p35 l=110
X121 dvdd.t87 a_14009_n2404.t4 x7.clk_disable.t0 dvdd.t86 sky130_fd_pr__pfet_01v8_hvt ad=0.1575 pd=1.315 as=0.26 ps=2.52 w=1 l=0.15
X122 avss_ip avss_ip avss_ip sky130_fd_pr__res_xhigh_po_0p35 l=110
X123 dvdd_ip.t47 standby_ip.t4 dvdd.t116 dvdd.t115 sky130_fd_pr__pfet_01v8 ad=0.58 pd=4.29 as=1.16 ps=8.58 w=4 l=0.5
X124 a_16163_n2247.t0 ena_ip.t7 dvdd.t128 dvdd.t72 sky130_fd_pr__pfet_01v8_hvt ad=0.1092 pd=1.36 as=0.07035 ps=0.755 w=0.42 l=0.15
X125 a_2132_n16918.t0 a_18932_n17084.t0 avss_ip sky130_fd_pr__res_xhigh_po_0p35 l=82
X126 dvdd.t135 x7.x2.Qb2.t3 a_19955_n2791.t1 dvdd.t111 sky130_fd_pr__pfet_01v8_hvt ad=0.0864 pd=0.91 as=0.1664 ps=1.8 w=0.64 l=0.15
X127 a_19003_n1943.t0 ena_ip.t8 dvdd.t130 dvdd.t74 sky130_fd_pr__pfet_01v8_hvt ad=0.0567 pd=0.69 as=0.0819 ps=0.81 w=0.42 l=0.15
X128 inv_in.t4 xin_buf.t3 sky130_fd_pr__cap_mim_m3_1 l=10 w=10
X129 a_10620_n9334.t1 a_24220_n9500.t0 dvss_ip sky130_fd_pr__res_xhigh_po_0p35 l=66
X130 dvss.t53 a_21211_n2817.t3 a_21775_n2791.t1 dvss.t52 sky130_fd_pr__nfet_01v8 ad=0.10025 pd=0.985 as=0.1092 ps=1.36 w=0.42 l=0.15
X131 a_3134_n13324.t0 vrb.t0 avss_ip sky130_fd_pr__res_xhigh_po_0p35 l=75
X132 dvdd_ip.t48 standby_ip.t5 dvdd.t118 dvdd.t117 sky130_fd_pr__pfet_01v8 ad=0.58 pd=4.29 as=0.58 ps=4.29 w=4 l=0.5
X133 a_16974_n2791.t1 standby_b.t8 dvss.t92 dvss.t91 sky130_fd_pr__nfet_01v8 ad=0.06405 pd=0.725 as=0.12495 ps=1.015 w=0.42 l=0.15
X134 x7.x1.x2.Q.t1 a_16795_n1943.t3 dvss.t38 dvss.t37 sky130_fd_pr__nfet_01v8 ad=0.169 pd=1.82 as=0.169 ps=1.82 w=0.65 l=0.15
X135 a_2132_n17582.t0 a_18932_n17748.t0 avss_ip sky130_fd_pr__res_xhigh_po_0p35 l=82
X136 dvdd.t173 x7.x1.x2.CLK.t2 a_15539_n2241.t0 dvdd.t109 sky130_fd_pr__pfet_01v8_hvt ad=0.0864 pd=0.91 as=0.1664 ps=1.8 w=0.64 l=0.15
X137 dvdd_ip.t29 vbp.t4 tail.t7 dvdd_ip.t8 sky130_fd_pr__pfet_01v8 ad=0.58 pd=4.58 as=0.58 ps=4.58 w=2 l=2
X138 a_19182_n2791.t0 standby_b.t9 dvss.t94 dvss.t93 sky130_fd_pr__nfet_01v8 ad=0.06405 pd=0.725 as=0.12495 ps=1.015 w=0.42 l=0.15
X139 dvss.t105 a_19003_n2817.t4 a_18937_n2791.t0 dvss.t104 sky130_fd_pr__nfet_01v8 ad=0.12495 pd=1.015 as=0.0669 ps=0.75 w=0.42 l=0.15
X140 avss_ip avss_ip avss_ip avss_ip sky130_fd_pr__nfet_g5v0d10v5 ad=1.16 pd=8.58 as=0 ps=0 w=4 l=2
X141 dvdd_ip.t56 dvss_ip sky130_fd_pr__cap_mim_m3_1 l=10 w=10
X142 dout_ip.t1 inv_m2.t3 dvss_ip dvss_ip sky130_fd_pr__nfet_01v8 ad=0.145 pd=1.58 as=0.0725 ps=0.79 w=0.5 l=1
X143 a_15705_n2791.t0 a_15539_n2791.t2 dvdd.t56 dvdd.t55 sky130_fd_pr__pfet_01v8_hvt ad=0.1664 pd=1.8 as=0.0864 ps=0.91 w=0.64 l=0.15
X144 avdd.t6 x3.out_b.t5 x3.out.t2 avdd.t2 sky130_fd_pr__pfet_g5v0d10v5 ad=0.29 pd=2.58 as=0.29 ps=2.58 w=1 l=4
X145 dvdd.t29 a_16795_n2817.t3 a_16782_n2425.t0 dvdd.t28 sky130_fd_pr__pfet_01v8_hvt ad=0.0819 pd=0.81 as=0.0567 ps=0.69 w=0.42 l=0.15
X146 dvss.t138 a_21211_n1943.t5 a_21775_n2247.t1 dvss.t137 sky130_fd_pr__nfet_01v8 ad=0.10025 pd=0.985 as=0.1092 ps=1.36 w=0.42 l=0.15
X147 xout.t10 xin.t10 avss_ip avss_ip sky130_fd_pr__nfet_g5v0d10v5 ad=0.58 pd=4.29 as=0.58 ps=4.29 w=4 l=0.5
X148 avss_ip avss_ip avss_ip avss_ip sky130_fd_pr__nfet_g5v0d10v5 ad=1.16 pd=8.58 as=0 ps=0 w=4 l=2
X149 a_16974_n1881.t1 ena_ip.t9 dvss.t130 dvss.t129 sky130_fd_pr__nfet_01v8 ad=0.06405 pd=0.725 as=0.12495 ps=1.015 w=0.42 l=0.15
X150 dvdd.t66 a_16795_n1943.t4 a_17359_n2247.t0 dvdd.t65 sky130_fd_pr__pfet_01v8_hvt ad=0.154 pd=1.335 as=0.1664 ps=1.8 w=0.64 l=0.15
X151 xin.t0 a_24530_n22338.t0 avss_ip sky130_fd_pr__res_xhigh_po_0p35 l=110
X152 avss_ip x3.out.t3 avss.t9 avss.t8 sky130_fd_pr__nfet_g5v0d10v5 ad=0.58 pd=4.29 as=0.58 ps=4.29 w=4 l=0.5
X153 dvss.t86 x7.clk_disable.t3 dout_filt.t0 dvss.t85 sky130_fd_pr__nfet_01v8 ad=0.145 pd=1.58 as=0.145 ps=1.58 w=0.5 l=4
X154 a_16055_n2791.t1 a_15539_n2791.t3 a_15960_n2791.t0 dvss.t134 sky130_fd_pr__special_nfet_01v8 ad=0.0594 pd=0.69 as=0.066 ps=0.745 w=0.36 l=0.15
X155 dvdd.t36 standby_ip.t6 dvdd_ip.t34 dvdd.t35 sky130_fd_pr__pfet_01v8 ad=0.58 pd=4.29 as=0.58 ps=4.29 w=4 l=0.5
X156 standby_33.t0 x4.out_b.t3 avdd.t1 avdd.t0 sky130_fd_pr__pfet_g5v0d10v5 ad=0.29 pd=2.58 as=0.29 ps=2.58 w=1 l=4
X157 a_16055_n1869.t2 a_15705_n2241.t3 a_15960_n1881.t3 dvdd.t150 sky130_fd_pr__pfet_01v8_hvt ad=0.07245 pd=0.765 as=0.0651 ps=0.73 w=0.42 l=0.15
X158 dvdd_ip.t28 vbp.t5 tail.t6 dvdd_ip.t19 sky130_fd_pr__pfet_01v8 ad=0.58 pd=4.58 as=0.58 ps=4.58 w=2 l=2
X159 a_20471_n2791.t2 a_20121_n2791.t2 a_20376_n2791.t2 dvdd.t141 sky130_fd_pr__pfet_01v8_hvt ad=0.07245 pd=0.765 as=0.0651 ps=0.73 w=0.42 l=0.15
X160 avss_ip xout.t24 sky130_fd_pr__diode_pw2nd_05v5 perim=1.8e+06 area=2.025e+11
**devattr s=257843176,88584 d=257843176,88584
X161 tail.t5 vbp.t6 dvdd_ip.t27 dvdd_ip.t17 sky130_fd_pr__pfet_01v8 ad=0.58 pd=4.58 as=0.58 ps=4.58 w=2 l=2
X162 dvdd.t136 a_19003_n2817.t5 a_18990_n2425.t0 dvdd.t68 sky130_fd_pr__pfet_01v8_hvt ad=0.0819 pd=0.81 as=0.0567 ps=0.69 w=0.42 l=0.15
X163 a_10620_n9334.t0 a_24220_n9168.t0 dvss_ip sky130_fd_pr__res_xhigh_po_0p35 l=66
X164 a_19182_n1881.t0 ena_ip.t10 dvss.t150 dvss.t149 sky130_fd_pr__nfet_01v8 ad=0.06405 pd=0.725 as=0.12495 ps=1.015 w=0.42 l=0.15
X165 avdd_ip.t23 vbreg.t14 xout.t19 avdd_ip.t7 sky130_fd_pr__pfet_g5v0d10v5 ad=1.16 pd=8.58 as=1.16 ps=8.58 w=4 l=2
X166 avss_ip xin.t11 xout.t6 avss_ip sky130_fd_pr__nfet_g5v0d10v5 ad=0.58 pd=4.29 as=0.58 ps=4.29 w=4 l=0.5
X167 xin_buf.t0 xout.t25 xin_buf.t0 dvdd_ip.t52 sky130_fd_pr__pfet_g5v0d10v5 ad=0.58 pd=4.29 as=0 ps=0 w=4 l=2
X168 a_3134_n13324.t1 avss_ip avss_ip sky130_fd_pr__res_xhigh_po_0p35 l=75
X169 a_21036_n2791.t1 a_19955_n2791.t3 a_20689_n2549.t3 dvdd.t70 sky130_fd_pr__pfet_01v8_hvt ad=0.0588 pd=0.7 as=0.12915 ps=1.185 w=0.42 l=0.15
X170 dvss.t49 a_19003_n1943.t3 a_18937_n1869.t1 dvss.t48 sky130_fd_pr__nfet_01v8 ad=0.12495 pd=1.015 as=0.0669 ps=0.75 w=0.42 l=0.15
X171 dvdd_ip.t56 dvss_ip sky130_fd_pr__cap_mim_m3_1 l=10 w=10
X172 a_18937_n2791.t1 a_17747_n2791.t2 a_18828_n2791.t0 dvss.t87 sky130_fd_pr__special_nfet_01v8 ad=0.0669 pd=0.75 as=0.0711 ps=0.755 w=0.36 l=0.15
X173 dvss.t63 a_16795_n2817.t4 a_17359_n2791.t1 dvss.t62 sky130_fd_pr__nfet_01v8 ad=0.10025 pd=0.985 as=0.1092 ps=1.36 w=0.42 l=0.15
X174 a_16273_n2273.t0 a_16055_n1869.t5 dvss.t51 dvss.t50 sky130_fd_pr__nfet_01v8 ad=0.0999 pd=0.985 as=0.1346 ps=1.15 w=0.64 l=0.15
X175 dvdd.t12 a_16620_n1869.t5 a_16795_n1943.t0 dvdd.t11 sky130_fd_pr__pfet_01v8_hvt ad=0.2132 pd=1.67 as=0.0567 ps=0.69 w=0.42 l=0.15
X176 x7.x1.x2.Q.t0 a_16795_n1943.t5 dvdd.t151 dvdd.t98 sky130_fd_pr__pfet_01v8_hvt ad=0.28 pd=2.56 as=0.2132 ps=1.67 w=1 l=0.15
X177 a_2130_n20512.t1 a_24530_n20678.t1 avss_ip sky130_fd_pr__res_xhigh_po_0p35 l=110
X178 avss_ip xin.t12 xout.t8 avss_ip sky130_fd_pr__nfet_g5v0d10v5 ad=0.58 pd=4.29 as=0.58 ps=4.29 w=4 l=0.5
X179 dvdd.t9 a_21036_n2791.t4 a_21211_n2817.t1 dvdd.t8 sky130_fd_pr__pfet_01v8_hvt ad=0.2132 pd=1.67 as=0.0567 ps=0.69 w=0.42 l=0.15
X180 x4.out_b.t2 standby_ip.t7 avss.t23 avss.t22 sky130_fd_pr__nfet_g5v0d10v5 ad=0.435 pd=3.29 as=0.87 ps=6.58 w=3 l=0.5
X181 a_18481_n2549.t0 a_18263_n2791.t4 dvdd.t77 dvdd.t76 sky130_fd_pr__pfet_01v8_hvt ad=0.12915 pd=1.185 as=0.2184 ps=2.2 w=0.84 l=0.15
X182 dvss_ip inv_m1.t3 dvss_ip dvss_ip sky130_fd_pr__nfet_01v8 ad=0.145 pd=1.58 as=7.9025 ps=61.46 w=0.5 l=1
X183 ibias_ip.t7 ibias_ip.t6 dvss_ip dvss_ip sky130_fd_pr__nfet_g5v0d10v5 ad=0.58 pd=4.58 as=0.58 ps=4.58 w=2 l=2
X184 dvss.t181 x7.x2.x2.CLK.t3 a_15539_n2791.t1 dvss.t180 sky130_fd_pr__nfet_01v8 ad=0.0567 pd=0.69 as=0.1092 ps=1.36 w=0.42 l=0.15
X185 xout.t7 xin.t13 avss_ip avss_ip sky130_fd_pr__nfet_g5v0d10v5 ad=0.58 pd=4.29 as=0.58 ps=4.29 w=4 l=0.5
X186 a_2132_n14926.t1 a_18932_n15092.t1 avss_ip sky130_fd_pr__res_xhigh_po_0p35 l=82
X187 dvdd.t52 x7.clk_disable.t4 a_14357_n2743.t0 dvdd.t51 sky130_fd_pr__pfet_01v8_hvt ad=0.10855 pd=1.005 as=0.0672 ps=0.85 w=0.64 l=0.15
X188 vn.t4 vn.t2 vn.t3 dvss_ip sky130_fd_pr__nfet_01v8 ad=1.16 pd=8.58 as=0 ps=0 w=4 l=2
X189 a_20567_n2791.t1 a_20121_n2791.t3 a_20471_n2791.t3 dvss.t189 sky130_fd_pr__special_nfet_01v8 ad=0.1401 pd=1.1 as=0.0594 ps=0.69 w=0.36 l=0.15
X190 dvdd.t143 standby_ip.t8 dvdd_ip.t50 dvdd.t142 sky130_fd_pr__pfet_01v8 ad=0.58 pd=4.29 as=0.58 ps=4.29 w=4 l=0.5
X191 dvss_ip dout_filt.t3 dout.t0 dvss_ip sky130_fd_pr__nfet_01v8 ad=0.2175 pd=2.08 as=0.2175 ps=2.08 w=0.75 l=1
X192 a_20471_n1869.t0 a_19955_n2241.t6 a_20376_n1881.t0 dvss.t211 sky130_fd_pr__special_nfet_01v8 ad=0.0594 pd=0.69 as=0.066 ps=0.745 w=0.36 l=0.15
X193 a_18481_n2273.t1 a_18263_n1869.t4 dvdd.t125 dvdd.t76 sky130_fd_pr__pfet_01v8_hvt ad=0.12915 pd=1.185 as=0.2184 ps=2.2 w=0.84 l=0.15
X194 avss.t19 x3.out.t4 avss_ip avss.t18 sky130_fd_pr__nfet_g5v0d10v5 ad=0.58 pd=4.29 as=0.58 ps=4.29 w=4 l=0.5
X195 dvss.t169 a_16795_n1943.t6 a_17359_n2247.t1 dvss.t168 sky130_fd_pr__nfet_01v8 ad=0.10025 pd=0.985 as=0.1092 ps=1.36 w=0.42 l=0.15
X196 x7.x1.Qb1.t0 a_17359_n2247.t2 dvdd.t1 dvdd.t0 sky130_fd_pr__pfet_01v8_hvt ad=0.26 pd=2.52 as=0.154 ps=1.335 w=1 l=0.15
X197 dvdd_ip.t26 vbp.t7 tail.t4 dvdd_ip.t15 sky130_fd_pr__pfet_01v8 ad=0.58 pd=4.58 as=0.58 ps=4.58 w=2 l=2
X198 avss.t27 avdd.t13 sky130_fd_pr__cap_mim_m3_1 l=10 w=10
X199 x7.x2.x2.Q.t0 a_16795_n2817.t5 dvdd.t99 dvdd.t98 sky130_fd_pr__pfet_01v8_hvt ad=0.28 pd=2.56 as=0.2132 ps=1.67 w=1 l=0.15
X200 a_14035_n2743.t1 dout_ip.t7 dout_filt.t1 dvss.t83 sky130_fd_pr__nfet_01v8 ad=0.0441 pd=0.63 as=0.1092 ps=1.36 w=0.42 l=0.15
X201 dvss.t208 x7.x1.x2.CLK.t3 a_15539_n2241.t1 dvss.t207 sky130_fd_pr__nfet_01v8 ad=0.0567 pd=0.69 as=0.1092 ps=1.36 w=0.42 l=0.15
X202 dout_ip.t0 inv_m2.t4 dvss_ip dvss_ip sky130_fd_pr__nfet_01v8 ad=0.145 pd=1.58 as=0.0725 ps=0.79 w=0.5 l=1
X203 xin_buf.t4 vn.t8 dvss_ip dvss_ip sky130_fd_pr__nfet_01v8 ad=0.58 pd=4.29 as=0.58 ps=4.29 w=4 l=2
X204 avdd_ip.t22 vbreg.t15 vg1.t3 avdd_ip.t11 sky130_fd_pr__pfet_g5v0d10v5 ad=1.16 pd=8.58 as=1.16 ps=8.58 w=4 l=2
X205 a_2130_n19848.t1 a_24530_n19682.t1 avss_ip sky130_fd_pr__res_xhigh_po_0p35 l=110
X206 vrb.t3 vg2.t6 vbreg.t0 avss_ip sky130_fd_pr__nfet_g5v0d10v5 ad=1.16 pd=8.58 as=1.16 ps=8.58 w=4 l=2
X207 a_18828_n1869.t1 a_17913_n2241.t3 a_18481_n2273.t0 dvss.t148 sky130_fd_pr__special_nfet_01v8 ad=0.0711 pd=0.755 as=0.0999 ps=0.985 w=0.36 l=0.15
X208 x7.x2.Qb1.t1 a_17359_n2791.t2 dvss.t142 dvss.t141 sky130_fd_pr__nfet_01v8 ad=0.169 pd=1.82 as=0.10025 ps=0.985 w=0.65 l=0.15
X209 a_2130_n20512.t0 a_24530_n20346.t1 avss_ip sky130_fd_pr__res_xhigh_po_0p35 l=110
X210 dvdd.t67 a_20689_n2273.t5 a_20579_n2247.t0 dvdd.t2 sky130_fd_pr__pfet_01v8_hvt ad=0.07035 pd=0.755 as=0.1155 ps=0.97 w=0.42 l=0.15
X211 x7.x1.x2.CLK.t0 a_15000_n1881.t4 dvdd.t34 dvdd.t33 sky130_fd_pr__pfet_01v8_hvt ad=0.1696 pd=1.81 as=0.1841 ps=1.26 w=0.64 l=0.15
X212 dvdd_ip.t51 standby_ip.t9 dvdd.t145 dvdd.t144 sky130_fd_pr__pfet_01v8 ad=0.58 pd=4.29 as=0.58 ps=4.29 w=4 l=0.5
X213 a_2132_n14926.t0 a_18932_n14760.t0 avss_ip sky130_fd_pr__res_xhigh_po_0p35 l=82
X214 x7.x2.Qb1.t0 a_17359_n2791.t3 dvdd.t91 dvdd.t0 sky130_fd_pr__pfet_01v8_hvt ad=0.26 pd=2.52 as=0.154 ps=1.335 w=1 l=0.15
X215 x7.x1.x3.Q.t1 a_19003_n1943.t4 dvss.t119 dvss.t118 sky130_fd_pr__nfet_01v8 ad=0.169 pd=1.82 as=0.169 ps=1.82 w=0.65 l=0.15
X216 xout.t4 xin.t14 avss_ip avss_ip sky130_fd_pr__nfet_g5v0d10v5 ad=0.58 pd=4.29 as=0.58 ps=4.29 w=4 l=0.5
X217 avdd.t8 x3.out_b.t6 avdd_ip.t1 avdd.t7 sky130_fd_pr__pfet_g5v0d10v5 ad=0.58 pd=4.29 as=0.58 ps=4.29 w=4 l=0.5
X218 a_16273_n2549.t2 a_16055_n2791.t5 dvss.t140 dvss.t139 sky130_fd_pr__nfet_01v8 ad=0.0999 pd=0.985 as=0.1346 ps=1.15 w=0.64 l=0.15
X219 a_16151_n2791.t1 a_15705_n2791.t3 a_16055_n2791.t3 dvss.t34 sky130_fd_pr__special_nfet_01v8 ad=0.1401 pd=1.1 as=0.0594 ps=0.69 w=0.36 l=0.15
X220 vg1.t4 xin.t5 sky130_fd_pr__cap_mim_m3_1 l=22 w=22
X221 avss_ip xin.t15 xout.t1 avss_ip sky130_fd_pr__nfet_g5v0d10v5 ad=0.58 pd=4.29 as=0.58 ps=4.29 w=4 l=0.5
X222 dvss_ip inv_m1.t4 inv_m2.t0 dvss_ip sky130_fd_pr__nfet_01v8 ad=0.0725 pd=0.79 as=0.145 ps=1.58 w=0.5 l=1
X223 a_2130_n19184.t0 a_24530_n19018.t1 avss_ip sky130_fd_pr__res_xhigh_po_0p35 l=110
X224 dvdd_ip.t25 vbp.t8 dvdd_ip.t24 dvdd_ip.t23 sky130_fd_pr__pfet_01v8 ad=0.58 pd=4.58 as=0 ps=0 w=2 l=2
X225 inv_in.t5 xin_buf.t3 sky130_fd_pr__cap_mim_m3_1 l=10 w=10
X226 dvdd.t153 a_4857_n1521.t2 standby_ip.t1 dvdd.t152 sky130_fd_pr__pfet_01v8_hvt ad=0.11455 pd=1.08 as=0.2054 ps=2.1 w=0.79 l=0.15
X227 a_14035_n1997.t0 ena_ip.t11 a_14009_n2404.t1 dvss.t33 sky130_fd_pr__nfet_01v8 ad=0.06825 pd=0.86 as=0.169 ps=1.82 w=0.65 l=0.15
X228 a_17913_n2791.t1 a_17747_n2791.t3 dvdd.t168 dvdd.t164 sky130_fd_pr__pfet_01v8_hvt ad=0.1664 pd=1.8 as=0.0864 ps=0.91 w=0.64 l=0.15
X229 a_4857_n1521.t1 standby.t2 dvss.t109 dvss.t106 sky130_fd_pr__nfet_01v8 ad=0.1352 pd=1.56 as=0.0754 ps=0.81 w=0.52 l=0.15
X230 a_10620_n9002.t0 a_24220_n9168.t1 dvss_ip sky130_fd_pr__res_xhigh_po_0p35 l=66
X231 a_18263_n2791.t0 a_17747_n2791.t4 a_18168_n2791.t0 dvss.t58 sky130_fd_pr__special_nfet_01v8 ad=0.0594 pd=0.69 as=0.066 ps=0.745 w=0.36 l=0.15
X232 a_14009_n2404.t0 standby_b.t10 a_14035_n2281.t1 dvss.t33 sky130_fd_pr__nfet_01v8 ad=0.169 pd=1.82 as=0.10725 ps=0.98 w=0.65 l=0.15
X233 a_16620_n1869.t0 a_15539_n2241.t3 a_16273_n2273.t1 dvdd.t131 sky130_fd_pr__pfet_01v8_hvt ad=0.0588 pd=0.7 as=0.12915 ps=1.185 w=0.42 l=0.15
X234 a_18263_n1869.t1 a_17913_n2241.t4 a_18168_n1881.t2 dvdd.t30 sky130_fd_pr__pfet_01v8_hvt ad=0.07245 pd=0.765 as=0.0651 ps=0.73 w=0.42 l=0.15
X235 a_10620_n9002.t1 a_24220_n8836.t1 dvss_ip sky130_fd_pr__res_xhigh_po_0p35 l=66
X236 dvdd.t112 x7.x1.Qb2.t3 a_19955_n2241.t0 dvdd.t111 sky130_fd_pr__pfet_01v8_hvt ad=0.0864 pd=0.91 as=0.1664 ps=1.8 w=0.64 l=0.15
X237 a_2130_n20180.t1 a_24530_n20346.t0 avss_ip sky130_fd_pr__res_xhigh_po_0p35 l=110
X238 dvdd_ip.t56 dvss_ip sky130_fd_pr__cap_mim_m3_1 l=10 w=10
X239 x3.out_b.t0 x3.out.t5 avdd.t3 avdd.t2 sky130_fd_pr__pfet_g5v0d10v5 ad=0.29 pd=2.58 as=0.29 ps=2.58 w=1 l=4
X240 xout.t5 xin.t16 avss_ip avss_ip sky130_fd_pr__nfet_g5v0d10v5 ad=0.58 pd=4.29 as=0.58 ps=4.29 w=4 l=0.5
X241 avdd.t17 standby_33.t4 x4.out_b.t0 avdd.t0 sky130_fd_pr__pfet_g5v0d10v5 ad=0.29 pd=2.58 as=0.29 ps=2.58 w=1 l=4
X242 a_20579_n2247.t2 a_19955_n2241.t7 a_20471_n1869.t1 dvdd.t174 sky130_fd_pr__pfet_01v8_hvt ad=0.1155 pd=0.97 as=0.07245 ps=0.765 w=0.42 l=0.15
X243 dvdd.t85 a_16273_n2273.t5 a_16163_n2247.t1 dvdd.t84 sky130_fd_pr__pfet_01v8_hvt ad=0.07035 pd=0.755 as=0.1155 ps=0.97 w=0.42 l=0.15
X244 a_15000_n2791.t2 dout_ip.t8 dvdd.t133 dvdd.t113 sky130_fd_pr__pfet_01v8_hvt ad=0.0609 pd=0.71 as=0.1113 ps=1.37 w=0.42 l=0.15
X245 dvdd.t40 a_18828_n1869.t5 a_19003_n1943.t1 dvdd.t39 sky130_fd_pr__pfet_01v8_hvt ad=0.2132 pd=1.67 as=0.0567 ps=0.69 w=0.42 l=0.15
X246 a_2130_n22172.t1 a_24530_n22006.t1 avss_ip sky130_fd_pr__res_xhigh_po_0p35 l=110
X247 avss_ip xin.t17 xout.t0 avss_ip sky130_fd_pr__nfet_g5v0d10v5 ad=0.58 pd=4.29 as=0.58 ps=4.29 w=4 l=0.5
X248 avdd_ip.t31 avss_ip sky130_fd_pr__cap_mim_m3_1 l=7 w=7
X249 a_15705_n2241.t1 a_15539_n2241.t4 dvdd.t161 dvdd.t55 sky130_fd_pr__pfet_01v8_hvt ad=0.1664 pd=1.8 as=0.0864 ps=0.91 w=0.64 l=0.15
X250 a_2130_n21840.t0 a_24530_n22006.t0 avss_ip sky130_fd_pr__res_xhigh_po_0p35 l=110
X251 avdd_ip.t19 vbreg.t16 xout.t18 avdd_ip.t7 sky130_fd_pr__pfet_g5v0d10v5 ad=1.16 pd=8.58 as=1.16 ps=8.58 w=4 l=2
X252 dvdd.t123 x7.x2.Qb1.t3 a_17747_n2791.t0 dvdd.t122 sky130_fd_pr__pfet_01v8_hvt ad=0.0864 pd=0.91 as=0.1664 ps=1.8 w=0.64 l=0.15
X253 a_2132_n16586.t1 a_18932_n16420.t0 avss_ip sky130_fd_pr__res_xhigh_po_0p35 l=82
X254 avss_ip xin.t18 avss_ip avss_ip sky130_fd_pr__nfet_g5v0d10v5 ad=1.16 pd=8.58 as=0 ps=0 w=4 l=0.5
X255 a_10620_n8670.t1 a_24220_n8836.t0 dvss_ip sky130_fd_pr__res_xhigh_po_0p35 l=66
X256 xin_buf.t2 vn.t9 xin_buf.t2 dvss_ip sky130_fd_pr__nfet_01v8 ad=0.58 pd=4.29 as=0 ps=0 w=4 l=2
X257 x7.x1.Qb2.t1 a_19567_n2247.t3 dvdd.t158 dvdd.t146 sky130_fd_pr__pfet_01v8_hvt ad=0.26 pd=2.52 as=0.154 ps=1.335 w=1 l=0.15
X258 a_2132_n17250.t0 a_18932_n17084.t1 avss_ip sky130_fd_pr__res_xhigh_po_0p35 l=82
X259 a_14009_n2701.t0 x7.clk_disable.t5 dvdd.t54 dvdd.t53 sky130_fd_pr__pfet_01v8_hvt ad=0.1092 pd=1.36 as=0.10855 ps=1.005 w=0.42 l=0.15