* PEX produced on Sun Apr 14 23:49:44 EDT 2024 using /home/brady/sources/osic-multitool-src/iic-pex.sh with m=3 and s=1
* NGSPICE file created from sky130_be_ip__lsxo.ext - technology: sky130A

.subckt sky130_be_ip__lsxo dout ibias xin xout ena avss avdd standby dvss dvdd
X0 a_16620_n1869.t1 a_15705_n2241.t2 a_16273_n2273.t2 dvss.t210 sky130_fd_pr__special_nfet_01v8 ad=0.0711 pd=0.755 as=0.0999 ps=0.985 w=0.36 l=0.15
X1 a_20376_n2791.t0 x7.x3.A2.t2 dvdd.t15 dvdd.t14 sky130_fd_pr__pfet_01v8_hvt ad=0.0651 pd=0.73 as=0.1092 ps=1.36 w=0.42 l=0.15
X2 a_21036_n1869.t0 a_19955_n2241.t2 a_20689_n2273.t0 dvdd.t144 sky130_fd_pr__pfet_01v8_hvt ad=0.0588 pd=0.7 as=0.12915 ps=1.185 w=0.42 l=0.15
X3 a_10620_n8338.t0 a_24220_n8172.t0 dvss_ip sky130_fd_pr__res_xhigh_po_0p35 l=66
X4 a_16795_n2817.t0 a_16620_n2791.t4 a_16974_n2791.t0 dvss.t289 sky130_fd_pr__nfet_01v8 ad=0.1092 pd=1.36 as=0.06405 ps=0.725 w=0.42 l=0.15
X5 dvdd.t126 ena_ip.t2 x3.in_b.t0 dvdd.t125 sky130_fd_pr__pfet_01v8 ad=0.29 pd=2.58 as=0.29 ps=2.58 w=1 l=1
X6 dvdd.t159 a_21036_n1869.t4 a_21211_n1943.t0 dvdd.t50 sky130_fd_pr__pfet_01v8_hvt ad=0.2132 pd=1.67 as=0.0567 ps=0.69 w=0.42 l=0.15
X7 a_18828_n2791.t0 a_17913_n2791.t2 a_18481_n2549.t0 dvss.t118 sky130_fd_pr__special_nfet_01v8 ad=0.0711 pd=0.755 as=0.0999 ps=0.985 w=0.36 l=0.15
X8 a_2130_n19848.t0 a_24530_n20014.t0 dvss sky130_fd_pr__res_xhigh_po_0p35 l=110
X9 vbreg.t0 icnode.t2 a_11526_n12394.t1 dvss sky130_fd_pr__nfet_g5v0d10v5 ad=0.1218 pd=1.42 as=0.0609 ps=0.71 w=0.42 l=8
X10 x7.x2.x2.CLK.t1 a_15000_n2791.t3 dvss.t57 dvss.t56 sky130_fd_pr__nfet_01v8 ad=0.1113 pd=1.37 as=0.0966 ps=0.88 w=0.42 l=0.15
X11 a_18168_n1881.t3 x7.x1.x4.CLK.t2 dvss.t274 dvss.t273 sky130_fd_pr__nfet_01v8 ad=0.066 pd=0.745 as=0.2205 ps=1.89 w=0.42 l=0.15
X12 tail.t11 vbp.t3 dvdd_ip.t52 dvdd_ip.t42 sky130_fd_pr__pfet_01v8 ad=0.58 pd=4.58 as=0.58 ps=4.58 w=2 l=2
X13 a_16317_n2791.t1 a_16273_n2549.t4 a_16151_n2791.t1 dvss.t169 sky130_fd_pr__nfet_01v8 ad=0.0441 pd=0.63 as=0.1401 ps=1.1 w=0.42 l=0.15
X14 dvss.t250 x4.in_b.t0 dvss_ip dvss.t249 sky130_fd_pr__nfet_01v8 ad=0.58 pd=4.29 as=0.58 ps=4.29 w=4 l=0.5
X15 a_9120_n9346.t4 a_24220_n9832.t1 dvss_ip sky130_fd_pr__res_xhigh_po_0p35 l=66
X16 a_16795_n1943.t1 a_16620_n1869.t4 a_16974_n1881.t0 dvss.t8 sky130_fd_pr__nfet_01v8 ad=0.1092 pd=1.36 as=0.06405 ps=0.725 w=0.42 l=0.15
X17 x7.x3.B2.t0 a_21775_n2247.t2 dvdd.t17 dvdd.t16 sky130_fd_pr__pfet_01v8_hvt ad=0.26 pd=2.52 as=0.154 ps=1.335 w=1 l=0.15
X18 dvdd_ip.t56 dvss_ip sky130_fd_pr__cap_mim_m3_1 l=10 w=10
X19 a_20121_n2241.t0 a_19955_n2241.t3 dvdd.t146 dvdd.t145 sky130_fd_pr__pfet_01v8_hvt ad=0.1664 pd=1.8 as=0.0864 ps=0.91 w=0.64 l=0.15
X20 a_2130_n21176.t1 a_24530_n21342.t1 dvss sky130_fd_pr__res_xhigh_po_0p35 l=110
X21 a_10658_n5446.t10 standby_33.t3 ibias.t1 ibias.t0 sky130_fd_pr__pfet_g5v0d10v5 ad=1.16 pd=8.58 as=1.16 ps=8.58 w=4 l=0.5
X22 xout.t20 vbreg.t9 avdd_ip.t28 avdd_ip.t11 sky130_fd_pr__pfet_g5v0d10v5 ad=1.16 pd=8.58 as=1.16 ps=8.58 w=4 l=2
X23 inv_m1.t0 inv_in.t1 dvdd_ip.t7 dvdd_ip.t6 sky130_fd_pr__pfet_01v8 ad=0.145 pd=1.58 as=0.145 ps=1.58 w=0.5 l=8
X24 a_2132_n15590.t0 a_18932_n15756.t0 dvss sky130_fd_pr__res_xhigh_po_0p35 l=82
X25 dout_ip.t1 inv_m2.t2 dvdd_ip.t17 dvdd_ip.t2 sky130_fd_pr__pfet_01v8 ad=0.145 pd=1.58 as=0.0725 ps=0.79 w=0.5 l=1
X26 a_20733_n2791.t0 a_20689_n2549.t4 a_20567_n2791.t0 dvss.t5 sky130_fd_pr__nfet_01v8 ad=0.0441 pd=0.63 as=0.1401 ps=1.1 w=0.42 l=0.15
X27 inv_in.t2 a_17576_n6897.t0 sky130_fd_pr__cap_mim_m3_1 l=10 w=10
X28 x7.x1.x2.CLK.t1 a_15000_n1881.t3 dvss.t108 dvss.t107 sky130_fd_pr__nfet_01v8 ad=0.1113 pd=1.37 as=0.0966 ps=0.88 w=0.42 l=0.15
X29 avdd_ip.t29 dvss sky130_fd_pr__cap_mim_m3_1 l=7 w=7
X30 a_16317_n1881.t0 a_16273_n2273.t4 a_16151_n1869.t0 dvss.t65 sky130_fd_pr__nfet_01v8 ad=0.0441 pd=0.63 as=0.1401 ps=1.1 w=0.42 l=0.15
X31 x7.x3.A2.t0 a_21775_n2791.t2 dvss.t36 dvss.t35 sky130_fd_pr__nfet_01v8 ad=0.169 pd=1.82 as=0.10025 ps=0.985 w=0.65 l=0.15
X32 a_14009_n2701.t1 x7.x5.TE_B.t2 dvss.t31 dvss.t30 sky130_fd_pr__nfet_01v8 ad=0.1092 pd=1.36 as=0.07665 ps=0.785 w=0.42 l=0.15
X33 dvss.t29 standby_ip.t2 x4.in_b dvss.t28 sky130_fd_pr__nfet_01v8 ad=0.29 pd=2.58 as=0.29 ps=2.58 w=1 l=1
X34 dvss.t63 a_2971_n1521.t2 ena_ip.t0 dvss.t62 sky130_fd_pr__nfet_01v8 ad=0.0754 pd=0.81 as=0.1352 ps=1.56 w=0.52 l=0.15
X35 dvss.t252 x4.in_b.t1 a_16317_n2791.t0 dvss.t251 sky130_fd_pr__nfet_01v8 ad=0.1346 pd=1.15 as=0.0441 ps=0.63 w=0.42 l=0.15
X36 avdd_ip.t30 dvss sky130_fd_pr__cap_mim_m3_1 l=7 w=7
X37 dvdd_ip.t56 dvss_ip sky130_fd_pr__cap_mim_m3_1 l=10 w=10
X38 dvss.t141 x7.x3.B2.t2 a_14035_n1997.t1 dvss.t98 sky130_fd_pr__nfet_01v8 ad=0.10725 pd=0.98 as=0.06825 ps=0.86 w=0.65 l=0.15
X39 x7.x3.A2.t1 a_21775_n2791.t3 dvdd.t117 dvdd.t16 sky130_fd_pr__pfet_01v8_hvt ad=0.26 pd=2.52 as=0.154 ps=1.335 w=1 l=0.15
X40 a_2132_n17582.t0 a_18932_n17416.t0 dvss sky130_fd_pr__res_xhigh_po_0p35 l=82
X41 inv_m1.t1 inv_in.t3 dvss_ip dvss_ip sky130_fd_pr__nfet_01v8 ad=0.145 pd=1.58 as=0.145 ps=1.58 w=0.5 l=8
X42 avss.t26 avdd.t11 sky130_fd_pr__cap_mim_m3_1 l=10 w=10
X43 a_10620_n9666.t0 a_24220_n9832.t0 dvss_ip sky130_fd_pr__res_xhigh_po_0p35 l=66
X44 a_20733_n1881.t0 a_20689_n2273.t4 a_20567_n1869.t0 dvss.t41 sky130_fd_pr__nfet_01v8 ad=0.0441 pd=0.63 as=0.1401 ps=1.1 w=0.42 l=0.15
X45 dvdd.t29 x7.x2.x2.CLK.t2 a_15539_n2791.t0 dvdd.t28 sky130_fd_pr__pfet_01v8_hvt ad=0.0864 pd=0.91 as=0.1664 ps=1.8 w=0.64 l=0.15
X46 a_16782_n2425.t1 a_15705_n2791.t2 a_16620_n2791.t0 dvdd.t26 sky130_fd_pr__pfet_01v8_hvt ad=0.0567 pd=0.69 as=0.0588 ps=0.7 w=0.42 l=0.15
X47 dvdd_ip.t5 inv_m1.t2 inv_m2.t0 dvdd_ip.t4 sky130_fd_pr__pfet_01v8 ad=0.0725 pd=0.79 as=0.145 ps=1.58 w=0.5 l=1
X48 a_4857_n1521.t0 standby.t0 dvdd.t33 dvdd.t32 sky130_fd_pr__pfet_01v8_hvt ad=0.2054 pd=2.1 as=0.11455 ps=1.08 w=0.79 l=0.15
X49 avdd_ip.t3 ena_b_33.t3 avdd.t14 avdd.t13 sky130_fd_pr__pfet_g5v0d10v5 ad=0.58 pd=4.29 as=0.58 ps=4.29 w=4 l=0.5
X50 dvdd_ip.t56 dvss_ip sky130_fd_pr__cap_mim_m3_1 l=10 w=10
X51 a_20121_n2791.t1 a_19955_n2791.t2 dvss.t124 dvss.t123 sky130_fd_pr__nfet_01v8 ad=0.1092 pd=1.36 as=0.0567 ps=0.69 w=0.42 l=0.15
X52 dvss.t183 ena_ip.t3 a_16317_n1881.t1 dvss.t182 sky130_fd_pr__nfet_01v8 ad=0.1346 pd=1.15 as=0.0441 ps=0.63 w=0.42 l=0.15
X53 x7.x1.x4.CLK.t0 a_19567_n2247.t2 dvss.t219 dvss.t218 sky130_fd_pr__nfet_01v8 ad=0.169 pd=1.82 as=0.10025 ps=0.985 w=0.65 l=0.15
X54 dvss.t93 ena.t0 sky130_fd_pr__diode_pw2nd_05v5 perim=1.8e+06 area=2.025e+11
X55 dvdd.t88 a_19003_n2817.t3 a_19567_n2791.t0 dvdd.t48 sky130_fd_pr__pfet_01v8_hvt ad=0.154 pd=1.335 as=0.1664 ps=1.8 w=0.64 l=0.15
X56 dvss vg1.t1 vg1.t2 dvss sky130_fd_pr__nfet_g5v0d10v5 ad=1.16 pd=8.58 as=1.16 ps=8.58 w=4 l=2
X57 a_21145_n1869.t0 a_19955_n2241.t4 a_21036_n1869.t1 dvss.t170 sky130_fd_pr__special_nfet_01v8 ad=0.0669 pd=0.75 as=0.0711 ps=0.755 w=0.36 l=0.15
X58 avdd_ip.t21 vbreg.t10 avdd_ip.t20 avdd_ip.t11 sky130_fd_pr__pfet_g5v0d10v5 ad=1.16 pd=8.58 as=0 ps=0 w=4 l=2
X59 a_21211_n2817.t2 x4.in_b.t2 dvdd.t31 dvdd.t30 sky130_fd_pr__pfet_01v8_hvt ad=0.0567 pd=0.69 as=0.0819 ps=0.81 w=0.42 l=0.15
X60 dvss xin.t6 dvss dvss sky130_fd_pr__nfet_g5v0d10v5 ad=0.58 pd=4.29 as=23.6118 ps=175.6 w=4 l=0.5
X61 a_19003_n2817.t1 a_18828_n2791.t4 a_19182_n2791.t0 dvss.t86 sky130_fd_pr__nfet_01v8 ad=0.1092 pd=1.36 as=0.06405 ps=0.725 w=0.42 l=0.15
X62 a_15000_n1881.t0 dout_ip.t5 dvdd.t53 dvdd.t52 sky130_fd_pr__pfet_01v8_hvt ad=0.0609 pd=0.71 as=0.1113 ps=1.37 w=0.42 l=0.15
X63 a_2132_n17250.t0 a_18932_n17416.t1 dvss sky130_fd_pr__res_xhigh_po_0p35 l=82
X64 a_20121_n2241.t1 a_19955_n2241.t5 dvss.t172 dvss.t171 sky130_fd_pr__nfet_01v8 ad=0.1092 pd=1.36 as=0.0567 ps=0.69 w=0.42 l=0.15
X65 dvss_ip a_10658_n5446.t11 dvss_ip dvss_ip sky130_fd_pr__nfet_g5v0d10v5 ad=0.58 pd=4.58 as=5.8 ps=45.8 w=2 l=2
X66 a_10620_n9666.t1 a_24220_n9500.t0 dvss_ip sky130_fd_pr__res_xhigh_po_0p35 l=66
X67 a_18359_n1869.t0 a_17913_n2241.t2 a_18263_n1869.t2 dvss.t119 sky130_fd_pr__special_nfet_01v8 ad=0.1401 pd=1.1 as=0.0594 ps=0.69 w=0.36 l=0.15
X68 xout.t19 vbreg.t11 avdd_ip.t27 avdd_ip.t7 sky130_fd_pr__pfet_g5v0d10v5 ad=1.16 pd=8.58 as=1.16 ps=8.58 w=4 l=2
X69 dvss dvss dvss sky130_fd_pr__res_xhigh_po_0p35 l=75
X70 vbreg.t2 vg2.t5 vrb.t4 dvss sky130_fd_pr__nfet_g5v0d10v5 ad=1.16 pd=8.58 as=1.16 ps=8.58 w=4 l=2
X71 dvss ena_33.t3 avss.t7 avss.t6 sky130_fd_pr__nfet_g5v0d10v5 ad=0.58 pd=4.29 as=1.16 ps=8.58 w=4 l=0.5
X72 a_18525_n2791.t0 a_18481_n2549.t4 a_18359_n2791.t1 dvss.t148 sky130_fd_pr__nfet_01v8 ad=0.0441 pd=0.63 as=0.1401 ps=1.1 w=0.42 l=0.15
X73 a_2130_n20844.t1 a_24530_n21010.t1 dvss sky130_fd_pr__res_xhigh_po_0p35 l=110
X74 a_15083_n2791.t1 dout_ip.t6 a_15000_n2791.t1 dvss.t87 sky130_fd_pr__nfet_01v8 ad=0.0441 pd=0.63 as=0.1113 ps=1.37 w=0.42 l=0.15
X75 a_21036_n1869.t2 a_20121_n2241.t2 a_20689_n2273.t2 dvss.t227 sky130_fd_pr__special_nfet_01v8 ad=0.0711 pd=0.755 as=0.0999 ps=0.985 w=0.36 l=0.15
X76 dvss_ip x4.in_b.t3 dvss.t61 dvss.t60 sky130_fd_pr__nfet_01v8 ad=0.58 pd=4.29 as=0.58 ps=4.29 w=4 l=0.5
X77 a_2132_n15590.t1 a_18932_n15424.t1 dvss sky130_fd_pr__res_xhigh_po_0p35 l=82
X78 a_14285_n2079.t2 x7.x3.B2.t3 a_14285_n2281.t2 dvdd.t98 sky130_fd_pr__pfet_01v8_hvt ad=0.135 pd=1.27 as=0.135 ps=1.27 w=1 l=0.15
X79 a_19003_n1943.t1 a_18828_n1869.t4 a_19182_n1881.t0 dvss.t23 sky130_fd_pr__nfet_01v8 ad=0.1092 pd=1.36 as=0.06405 ps=0.725 w=0.42 l=0.15
X80 vn.t1 xin.t7 vn.t0 dvdd_ip.t10 sky130_fd_pr__pfet_g5v0d10v5 ad=1.16 pd=8.58 as=0 ps=0 w=4 l=2
X81 avss.t25 x4.in_b.t4 standby_33.t2 avss.t24 sky130_fd_pr__nfet_g5v0d10v5 ad=0.87 pd=6.58 as=0.435 ps=3.29 w=3 l=0.5
X82 a_10620_n7674.t1 a_24220_n7840.t0 dvss_ip sky130_fd_pr__res_xhigh_po_0p35 l=66
X83 a_10658_n5446.t9 a_10658_n5446.t8 dvss_ip dvss_ip sky130_fd_pr__nfet_g5v0d10v5 ad=0.58 pd=4.58 as=0.58 ps=4.58 w=2 l=2
X84 avdd.t3 ena_b_33.t4 avdd_ip.t0 avdd.t2 sky130_fd_pr__pfet_g5v0d10v5 ad=1.16 pd=8.58 as=0.58 ps=4.29 w=4 l=0.5
X85 a_15960_n2791.t2 x7.x2.x3.CLK.t2 dvdd.t124 dvdd.t123 sky130_fd_pr__pfet_01v8_hvt ad=0.0651 pd=0.73 as=0.1092 ps=1.36 w=0.42 l=0.15
X86 a_2130_n19516.t1 a_24530_n19682.t1 dvss sky130_fd_pr__res_xhigh_po_0p35 l=110
X87 xin.t8 avdd_ip.t2 sky130_fd_pr__diode_pd2nw_05v5 perim=1.8e+06 area=2.025e+11
X88 a_20579_n2247.t2 ena_ip.t4 dvdd.t135 dvdd.t134 sky130_fd_pr__pfet_01v8_hvt ad=0.1092 pd=1.36 as=0.07035 ps=0.755 w=0.42 l=0.15
X89 dvdd.t42 a_2971_n1521.t3 ena_ip.t1 dvdd.t41 sky130_fd_pr__pfet_01v8_hvt ad=0.11455 pd=1.08 as=0.2054 ps=2.1 w=0.79 l=0.15
X90 dvdd_ip.t56 dvss_ip sky130_fd_pr__cap_mim_m3_1 l=10 w=10
X91 a_15083_n1881.t0 dout_ip.t7 a_15000_n1881.t1 dvss.t88 sky130_fd_pr__nfet_01v8 ad=0.0441 pd=0.63 as=0.1113 ps=1.37 w=0.42 l=0.15
X92 a_18525_n1881.t0 a_18481_n2273.t4 a_18359_n1869.t1 dvss.t140 sky130_fd_pr__nfet_01v8 ad=0.0441 pd=0.63 as=0.1401 ps=1.1 w=0.42 l=0.15
X93 a_18168_n2791.t1 x7.x2.x4.CLK.t2 dvdd.t160 dvdd.t68 sky130_fd_pr__pfet_01v8_hvt ad=0.0651 pd=0.73 as=0.1092 ps=1.36 w=0.42 l=0.15
X94 dvss.t115 x4.in_b.t5 a_18525_n2791.t1 dvss.t114 sky130_fd_pr__nfet_01v8 ad=0.1346 pd=1.15 as=0.0441 ps=0.63 w=0.42 l=0.15
X95 a_17576_n6897.t4 xout.t23 tail.t0 dvdd_ip.t9 sky130_fd_pr__pfet_g5v0d10v5 ad=0.58 pd=4.29 as=0.58 ps=4.29 w=4 l=2
X96 a_16273_n2549.t2 a_16055_n2791.t4 dvdd.t122 dvdd.t121 sky130_fd_pr__pfet_01v8_hvt ad=0.12915 pd=1.185 as=0.2184 ps=2.2 w=0.84 l=0.15
X97 dvss.t135 x7.x3.A2.t3 a_15083_n2791.t0 dvss.t134 sky130_fd_pr__nfet_01v8 ad=0.0966 pd=0.88 as=0.0441 ps=0.63 w=0.42 l=0.15
X98 xout.t0 xin.t9 dvss dvss sky130_fd_pr__nfet_g5v0d10v5 ad=0.58 pd=4.29 as=0.58 ps=4.29 w=4 l=0.5
X99 x7.x1.x4.Q.t1 a_21211_n1943.t3 dvss.t224 dvss.t223 sky130_fd_pr__nfet_01v8 ad=0.169 pd=1.82 as=0.169 ps=1.82 w=0.65 l=0.15
X100 dvdd.t13 x7.x3.A2.t4 a_15000_n2791.t0 dvdd.t12 sky130_fd_pr__pfet_01v8_hvt ad=0.1841 pd=1.26 as=0.0609 ps=0.71 w=0.42 l=0.15
X101 a_14009_n2404.t0 standby_ip.t3 a_14285_n2079.t0 dvdd.t19 sky130_fd_pr__pfet_01v8_hvt ad=0.26 pd=2.52 as=0.135 ps=1.27 w=1 l=0.15
X102 dvss_ip x4.in_b.t6 dvss.t151 dvss.t150 sky130_fd_pr__nfet_01v8 ad=0.58 pd=4.29 as=1.16 ps=8.58 w=4 l=0.5
X103 avdd_ip.t23 vbreg.t12 xout.t18 avdd_ip.t11 sky130_fd_pr__pfet_g5v0d10v5 ad=1.16 pd=8.58 as=1.16 ps=8.58 w=4 l=2
X104 tail.t10 vbp.t4 dvdd_ip.t51 dvdd_ip.t34 sky130_fd_pr__pfet_01v8 ad=0.58 pd=4.58 as=0.58 ps=4.58 w=2 l=2
X105 a_2130_n20844.t0 a_24530_n20678.t0 dvss sky130_fd_pr__res_xhigh_po_0p35 l=110
X106 a_16729_n1869.t1 a_15539_n2241.t2 a_16620_n1869.t3 dvss.t272 sky130_fd_pr__special_nfet_01v8 ad=0.0669 pd=0.75 as=0.0711 ps=0.755 w=0.36 l=0.15
X107 dvss vg2.t4 sky130_fd_pr__cap_mim_m3_1 l=18 w=18
X108 dvdd_ip.t50 vbp.t5 dvdd_ip.t49 dvdd_ip.t29 sky130_fd_pr__pfet_01v8 ad=0.58 pd=4.58 as=0 ps=0 w=2 l=2
X109 a_16273_n2273.t3 a_16055_n1869.t4 dvdd.t170 dvdd.t121 sky130_fd_pr__pfet_01v8_hvt ad=0.12915 pd=1.185 as=0.2184 ps=2.2 w=0.84 l=0.15
X110 a_2132_n15258.t1 a_18932_n15424.t0 dvss sky130_fd_pr__res_xhigh_po_0p35 l=82
X111 a_18990_n2425.t0 a_17913_n2791.t3 a_18828_n2791.t1 dvdd.t45 sky130_fd_pr__pfet_01v8_hvt ad=0.0567 pd=0.69 as=0.0588 ps=0.7 w=0.42 l=0.15
X112 a_14285_n2281.t0 x7.x3.A2.t5 dvdd.t11 dvdd.t10 sky130_fd_pr__pfet_01v8_hvt ad=0.165 pd=1.33 as=0.1575 ps=1.315 w=1 l=0.15
X113 avdd_ip.t26 vbreg.t13 avdd_ip.t25 avdd_ip.t7 sky130_fd_pr__pfet_g5v0d10v5 ad=1.16 pd=8.58 as=0 ps=0 w=4 l=2
X114 dvss.t191 ena_ip.t5 a_18525_n1881.t1 dvss.t190 sky130_fd_pr__nfet_01v8 ad=0.1346 pd=1.15 as=0.0441 ps=0.63 w=0.42 l=0.15
X115 dvdd.t151 a_21211_n1943.t4 a_21775_n2247.t0 dvdd.t132 sky130_fd_pr__pfet_01v8_hvt ad=0.154 pd=1.335 as=0.1664 ps=1.8 w=0.64 l=0.15
X116 dvss.t246 x7.x3.B2.t4 a_15083_n1881.t1 dvss.t245 sky130_fd_pr__nfet_01v8 ad=0.0966 pd=0.88 as=0.0441 ps=0.63 w=0.42 l=0.15
X117 dvdd_ip.t56 dvss_ip sky130_fd_pr__cap_mim_m3_1 l=10 w=10
X118 a_16795_n1943.t2 ena_ip.t6 dvdd.t90 dvdd.t65 sky130_fd_pr__pfet_01v8_hvt ad=0.0567 pd=0.69 as=0.0819 ps=0.81 w=0.42 l=0.15
X119 dvss.t0 standby.t1 sky130_fd_pr__diode_pw2nd_05v5 perim=1.8e+06 area=2.025e+11
X120 dvss.t153 x4.in_b.t7 dvss_ip dvss.t152 sky130_fd_pr__nfet_01v8 ad=0.58 pd=4.29 as=0.58 ps=4.29 w=4 l=0.5
X121 a_2130_n19516.t0 a_24530_n19350.t1 dvss sky130_fd_pr__res_xhigh_po_0p35 l=110
X122 dvdd.t131 a_14009_n2404.t4 x7.x5.TE_B.t0 dvdd.t130 sky130_fd_pr__pfet_01v8_hvt ad=0.1575 pd=1.315 as=0.26 ps=2.52 w=1 l=0.15
X123 dvss dvss dvss sky130_fd_pr__res_xhigh_po_0p35 l=110
X124 dvdd_ip.t54 standby_ip.t4 dvdd.t165 dvdd.t164 sky130_fd_pr__pfet_01v8 ad=0.58 pd=4.29 as=1.16 ps=8.58 w=4 l=0.5
X125 a_16163_n2247.t2 ena_ip.t7 dvdd.t92 dvdd.t91 sky130_fd_pr__pfet_01v8_hvt ad=0.1092 pd=1.36 as=0.07035 ps=0.755 w=0.42 l=0.15
X126 a_2132_n16918.t1 a_18932_n17084.t0 dvss sky130_fd_pr__res_xhigh_po_0p35 l=82
X127 dvdd.t120 x7.x2.x4.CLK.t3 a_19955_n2791.t1 dvdd.t119 sky130_fd_pr__pfet_01v8_hvt ad=0.0864 pd=0.91 as=0.1664 ps=1.8 w=0.64 l=0.15
X128 a_19003_n1943.t2 ena_ip.t8 dvdd.t150 dvdd.t94 sky130_fd_pr__pfet_01v8_hvt ad=0.0567 pd=0.69 as=0.0819 ps=0.81 w=0.42 l=0.15
X129 inv_in.t4 a_17576_n6897.t0 sky130_fd_pr__cap_mim_m3_1 l=10 w=10
X130 a_10620_n9334.t1 a_24220_n9500.t1 dvss_ip sky130_fd_pr__res_xhigh_po_0p35 l=66
X131 dvss.t69 a_21211_n2817.t3 a_21775_n2791.t0 dvss.t68 sky130_fd_pr__nfet_01v8 ad=0.10025 pd=0.985 as=0.1092 ps=1.36 w=0.42 l=0.15
X132 a_3134_n13324.t0 vrb.t0 dvss sky130_fd_pr__res_xhigh_po_0p35 l=75
X133 dvdd_ip.t55 standby_ip.t5 dvdd.t167 dvdd.t166 sky130_fd_pr__pfet_01v8 ad=0.58 pd=4.29 as=0.58 ps=4.29 w=4 l=0.5
X134 a_16974_n2791.t1 x4.in_b.t8 dvss.t145 dvss.t144 sky130_fd_pr__nfet_01v8 ad=0.06405 pd=0.725 as=0.12495 ps=1.015 w=0.42 l=0.15
X135 x7.x1.x2.Q.t1 a_16795_n1943.t3 dvss.t49 dvss.t48 sky130_fd_pr__nfet_01v8 ad=0.169 pd=1.82 as=0.169 ps=1.82 w=0.65 l=0.15
X136 a_2132_n17582.t1 a_18932_n17748.t0 dvss sky130_fd_pr__res_xhigh_po_0p35 l=82
X137 dvdd.t127 x7.x1.x2.CLK.t2 a_15539_n2241.t0 dvdd.t28 sky130_fd_pr__pfet_01v8_hvt ad=0.0864 pd=0.91 as=0.1664 ps=1.8 w=0.64 l=0.15
X138 dvdd_ip.t48 vbp.t6 tail.t9 dvdd_ip.t27 sky130_fd_pr__pfet_01v8 ad=0.58 pd=4.58 as=0.58 ps=4.58 w=2 l=2
X139 a_19182_n2791.t1 x4.in_b.t9 dvss.t147 dvss.t146 sky130_fd_pr__nfet_01v8 ad=0.06405 pd=0.725 as=0.12495 ps=1.015 w=0.42 l=0.15
X140 dvss.t139 a_19003_n2817.t4 a_18937_n2791.t0 dvss.t138 sky130_fd_pr__nfet_01v8 ad=0.12495 pd=1.015 as=0.0669 ps=0.75 w=0.42 l=0.15
X141 dvss dvss dvss dvss sky130_fd_pr__nfet_g5v0d10v5 ad=1.16 pd=8.58 as=0 ps=0 w=4 l=2
X142 dvdd_ip.t56 dvss_ip sky130_fd_pr__cap_mim_m3_1 l=10 w=10
X143 dout_ip.t3 inv_m2.t3 dvss_ip dvss_ip sky130_fd_pr__nfet_01v8 ad=0.145 pd=1.58 as=0.0725 ps=0.79 w=0.5 l=1
X144 a_15705_n2791.t0 a_15539_n2791.t2 dvdd.t25 dvdd.t24 sky130_fd_pr__pfet_01v8_hvt ad=0.1664 pd=1.8 as=0.0864 ps=0.91 w=0.64 l=0.15
X145 avdd.t5 ena_b_33.t5 ena_33.t2 avdd.t4 sky130_fd_pr__pfet_g5v0d10v5 ad=0.29 pd=2.58 as=0.29 ps=2.58 w=1 l=4
X146 dvdd.t59 a_16795_n2817.t3 a_16782_n2425.t0 dvdd.t58 sky130_fd_pr__pfet_01v8_hvt ad=0.0819 pd=0.81 as=0.0567 ps=0.69 w=0.42 l=0.15
X147 dvss.t229 a_21211_n1943.t5 a_21775_n2247.t1 dvss.t228 sky130_fd_pr__nfet_01v8 ad=0.10025 pd=0.985 as=0.1092 ps=1.36 w=0.42 l=0.15
X148 xout.t2 xin.t10 dvss dvss sky130_fd_pr__nfet_g5v0d10v5 ad=0.58 pd=4.29 as=0.58 ps=4.29 w=4 l=0.5
X149 dvss dvss dvss dvss sky130_fd_pr__nfet_g5v0d10v5 ad=1.16 pd=8.58 as=0 ps=0 w=4 l=2
X150 a_16974_n1881.t1 ena_ip.t9 dvss.t221 dvss.t220 sky130_fd_pr__nfet_01v8 ad=0.06405 pd=0.725 as=0.12495 ps=1.015 w=0.42 l=0.15
X151 dvdd.t27 a_16795_n1943.t4 a_17359_n2247.t0 dvdd.t2 sky130_fd_pr__pfet_01v8_hvt ad=0.154 pd=1.335 as=0.1664 ps=1.8 w=0.64 l=0.15
X152 xin.t0 a_24530_n22338.t1 dvss sky130_fd_pr__res_xhigh_po_0p35 l=110
X153 dvss.t33 x7.x5.TE_B.t3 dout_filt.t2 dvss.t32 sky130_fd_pr__nfet_01v8 ad=0.145 pd=1.58 as=0.145 ps=1.58 w=0.5 l=4
X154 a_16055_n2791.t2 a_15539_n2791.t3 a_15960_n2791.t1 dvss.t163 sky130_fd_pr__special_nfet_01v8 ad=0.0594 pd=0.69 as=0.066 ps=0.745 w=0.36 l=0.15
X155 dvdd.t23 standby_ip.t6 dvdd_ip.t8 dvdd.t22 sky130_fd_pr__pfet_01v8 ad=0.58 pd=4.29 as=0.58 ps=4.29 w=4 l=0.5
X156 standby_33.t0 x4.out_b.t3 avdd.t1 avdd.t0 sky130_fd_pr__pfet_g5v0d10v5 ad=0.29 pd=2.58 as=0.29 ps=2.58 w=1 l=4
X157 a_16055_n1869.t2 a_15705_n2241.t3 a_15960_n1881.t2 dvdd.t136 sky130_fd_pr__pfet_01v8_hvt ad=0.07245 pd=0.765 as=0.0651 ps=0.73 w=0.42 l=0.15
X158 dvdd_ip.t47 vbp.t7 tail.t8 dvdd_ip.t40 sky130_fd_pr__pfet_01v8 ad=0.58 pd=4.58 as=0.58 ps=4.58 w=2 l=2
X159 a_20471_n2791.t0 a_20121_n2791.t2 a_20376_n2791.t2 dvdd.t105 sky130_fd_pr__pfet_01v8_hvt ad=0.07245 pd=0.765 as=0.0651 ps=0.73 w=0.42 l=0.15
X160 dvss xout.t24 sky130_fd_pr__diode_pw2nd_05v5 perim=1.8e+06 area=2.025e+11
X161 tail.t7 vbp.t8 dvdd_ip.t46 dvdd_ip.t38 sky130_fd_pr__pfet_01v8 ad=0.58 pd=4.58 as=0.58 ps=4.58 w=2 l=2
X162 dvdd.t87 a_19003_n2817.t5 a_18990_n2425.t1 dvdd.t86 sky130_fd_pr__pfet_01v8_hvt ad=0.0819 pd=0.81 as=0.0567 ps=0.69 w=0.42 l=0.15
X163 a_10620_n9334.t0 a_24220_n9168.t0 dvss_ip sky130_fd_pr__res_xhigh_po_0p35 l=66
X164 a_19182_n1881.t1 ena_ip.t10 dvss.t216 dvss.t215 sky130_fd_pr__nfet_01v8 ad=0.06405 pd=0.725 as=0.12495 ps=1.015 w=0.42 l=0.15
X165 avdd_ip.t24 vbreg.t14 xout.t17 avdd_ip.t7 sky130_fd_pr__pfet_g5v0d10v5 ad=1.16 pd=8.58 as=1.16 ps=8.58 w=4 l=2
X166 dvss xin.t11 xout.t10 dvss sky130_fd_pr__nfet_g5v0d10v5 ad=0.58 pd=4.29 as=0.58 ps=4.29 w=4 l=0.5
X167 a_17576_n6897.t3 xout.t25 a_17576_n6897.t3 dvdd_ip.t22 sky130_fd_pr__pfet_g5v0d10v5 ad=0.58 pd=4.29 as=0 ps=0 w=4 l=2
X168 a_3134_n13324.t1 dvss dvss sky130_fd_pr__res_xhigh_po_0p35 l=75
X169 a_21036_n2791.t2 a_19955_n2791.t3 a_20689_n2549.t3 dvdd.t144 sky130_fd_pr__pfet_01v8_hvt ad=0.0588 pd=0.7 as=0.12915 ps=1.185 w=0.42 l=0.15
X170 dvss.t178 a_19003_n1943.t3 a_18937_n1869.t0 dvss.t177 sky130_fd_pr__nfet_01v8 ad=0.12495 pd=1.015 as=0.0669 ps=0.75 w=0.42 l=0.15
X171 dvdd_ip.t56 dvss_ip sky130_fd_pr__cap_mim_m3_1 l=10 w=10
X172 a_18937_n2791.t1 a_17747_n2791.t2 a_18828_n2791.t3 dvss.t255 sky130_fd_pr__special_nfet_01v8 ad=0.0669 pd=0.75 as=0.0711 ps=0.755 w=0.36 l=0.15
X173 dvss.t113 a_16795_n2817.t4 a_17359_n2791.t1 dvss.t112 sky130_fd_pr__nfet_01v8 ad=0.10025 pd=0.985 as=0.1092 ps=1.36 w=0.42 l=0.15
X174 a_16273_n2273.t0 a_16055_n1869.t5 dvss.t189 dvss.t188 sky130_fd_pr__nfet_01v8 ad=0.0999 pd=0.985 as=0.1346 ps=1.15 w=0.64 l=0.15
X175 dvdd.t9 a_16620_n1869.t5 a_16795_n1943.t0 dvdd.t8 sky130_fd_pr__pfet_01v8_hvt ad=0.2132 pd=1.67 as=0.0567 ps=0.69 w=0.42 l=0.15
X176 x7.x1.x2.Q.t0 a_16795_n1943.t5 dvdd.t102 dvdd.t101 sky130_fd_pr__pfet_01v8_hvt ad=0.28 pd=2.56 as=0.2132 ps=1.67 w=1 l=0.15
X177 a_2130_n20512.t0 a_24530_n20678.t1 dvss sky130_fd_pr__res_xhigh_po_0p35 l=110
X178 dvss xin.t12 xout.t8 dvss sky130_fd_pr__nfet_g5v0d10v5 ad=0.58 pd=4.29 as=0.58 ps=4.29 w=4 l=0.5
X179 dvdd.t51 a_21036_n2791.t4 a_21211_n2817.t1 dvdd.t50 sky130_fd_pr__pfet_01v8_hvt ad=0.2132 pd=1.67 as=0.0567 ps=0.69 w=0.42 l=0.15
X180 x4.out_b.t2 standby_ip.t7 avss.t13 avss.t12 sky130_fd_pr__nfet_g5v0d10v5 ad=0.435 pd=3.29 as=0.87 ps=6.58 w=3 l=0.5
X181 a_18481_n2549.t2 a_18263_n2791.t4 dvdd.t80 dvdd.t79 sky130_fd_pr__pfet_01v8_hvt ad=0.12915 pd=1.185 as=0.2184 ps=2.2 w=0.84 l=0.15
X182 dvss_ip inv_m1.t3 dvss_ip dvss_ip sky130_fd_pr__nfet_01v8 ad=0.145 pd=1.58 as=7.9025 ps=61.46 w=0.5 l=1
X183 a_10658_n5446.t7 a_10658_n5446.t6 dvss_ip dvss_ip sky130_fd_pr__nfet_g5v0d10v5 ad=0.58 pd=4.58 as=0.58 ps=4.58 w=2 l=2
X184 dvss.t59 x7.x2.x2.CLK.t3 a_15539_n2791.t1 dvss.t58 sky130_fd_pr__nfet_01v8 ad=0.0567 pd=0.69 as=0.1092 ps=1.36 w=0.42 l=0.15
X185 xout.t7 xin.t13 dvss dvss sky130_fd_pr__nfet_g5v0d10v5 ad=0.58 pd=4.29 as=0.58 ps=4.29 w=4 l=0.5
X186 a_2132_n14926.t1 a_18932_n15092.t1 dvss sky130_fd_pr__res_xhigh_po_0p35 l=82
X187 dvdd.t38 x7.x5.TE_B.t4 a_14357_n2743.t1 dvdd.t37 sky130_fd_pr__pfet_01v8_hvt ad=0.10855 pd=1.005 as=0.0672 ps=0.85 w=0.64 l=0.15
X188 vn.t7 vn.t5 vn.t6 dvss_ip sky130_fd_pr__nfet_01v8 ad=1.16 pd=8.58 as=0 ps=0 w=4 l=2
X189 a_20567_n2791.t1 a_20121_n2791.t3 a_20471_n2791.t1 dvss.t217 sky130_fd_pr__special_nfet_01v8 ad=0.1401 pd=1.1 as=0.0594 ps=0.69 w=0.36 l=0.15
X190 dvdd.t76 standby_ip.t8 dvdd_ip.t15 dvdd.t75 sky130_fd_pr__pfet_01v8 ad=0.58 pd=4.29 as=0.58 ps=4.29 w=4 l=0.5
X191 dvss_ip dout_filt.t3 dout.t1 dvss_ip sky130_fd_pr__nfet_01v8 ad=0.2175 pd=2.08 as=0.2175 ps=2.08 w=0.75 l=1
X192 a_20471_n1869.t0 a_19955_n2241.t6 a_20376_n1881.t0 dvss.t149 sky130_fd_pr__special_nfet_01v8 ad=0.0594 pd=0.69 as=0.066 ps=0.745 w=0.36 l=0.15
X193 a_18481_n2273.t1 a_18263_n1869.t4 dvdd.t107 dvdd.t79 sky130_fd_pr__pfet_01v8_hvt ad=0.12915 pd=1.185 as=0.2184 ps=2.2 w=0.84 l=0.15
X194 dvss.t143 a_16795_n1943.t6 a_17359_n2247.t1 dvss.t142 sky130_fd_pr__nfet_01v8 ad=0.10025 pd=0.985 as=0.1092 ps=1.36 w=0.42 l=0.15
X195 x7.x1.x3.CLK.t0 a_17359_n2247.t2 dvdd.t5 dvdd.t4 sky130_fd_pr__pfet_01v8_hvt ad=0.26 pd=2.52 as=0.154 ps=1.335 w=1 l=0.15
X196 dvdd_ip.t45 vbp.t9 tail.t6 dvdd_ip.t36 sky130_fd_pr__pfet_01v8 ad=0.58 pd=4.58 as=0.58 ps=4.58 w=2 l=2
X197 avss.t27 avdd.t10 sky130_fd_pr__cap_mim_m3_1 l=10 w=10
X198 x7.x2.x2.Q.t0 a_16795_n2817.t5 dvdd.t140 dvdd.t101 sky130_fd_pr__pfet_01v8_hvt ad=0.28 pd=2.56 as=0.2132 ps=1.67 w=1 l=0.15
X199 a_14035_n2743.t0 dout_ip.t8 dout_filt.t1 dvss.t30 sky130_fd_pr__nfet_01v8 ad=0.0441 pd=0.63 as=0.1092 ps=1.36 w=0.42 l=0.15
X200 dvss.t185 x7.x1.x2.CLK.t3 a_15539_n2241.t1 dvss.t184 sky130_fd_pr__nfet_01v8 ad=0.0567 pd=0.69 as=0.1092 ps=1.36 w=0.42 l=0.15
X201 dout_ip.t2 inv_m2.t4 dvss_ip dvss_ip sky130_fd_pr__nfet_01v8 ad=0.145 pd=1.58 as=0.0725 ps=0.79 w=0.5 l=1
X202 a_17576_n6897.t2 vn.t8 dvss_ip dvss_ip sky130_fd_pr__nfet_01v8 ad=0.58 pd=4.29 as=0.58 ps=4.29 w=4 l=2
X203 avdd_ip.t22 vbreg.t15 vg1.t3 avdd_ip.t11 sky130_fd_pr__pfet_g5v0d10v5 ad=1.16 pd=8.58 as=1.16 ps=8.58 w=4 l=2
X204 a_2130_n19848.t1 a_24530_n19682.t0 dvss sky130_fd_pr__res_xhigh_po_0p35 l=110
X205 vrb.t3 vg2.t6 vbreg.t1 dvss sky130_fd_pr__nfet_g5v0d10v5 ad=1.16 pd=8.58 as=1.16 ps=8.58 w=4 l=2
X206 a_18828_n1869.t1 a_17913_n2241.t3 a_18481_n2273.t0 dvss.t125 sky130_fd_pr__special_nfet_01v8 ad=0.0711 pd=0.755 as=0.0999 ps=0.985 w=0.36 l=0.15
X207 x7.x2.x3.CLK.t1 a_17359_n2791.t2 dvss.t83 dvss.t82 sky130_fd_pr__nfet_01v8 ad=0.169 pd=1.82 as=0.10025 ps=0.985 w=0.65 l=0.15
X208 a_2130_n20512.t1 a_24530_n20346.t1 dvss sky130_fd_pr__res_xhigh_po_0p35 l=110
X209 dvdd.t174 a_20689_n2273.t5 a_20579_n2247.t0 dvdd.t0 sky130_fd_pr__pfet_01v8_hvt ad=0.07035 pd=0.755 as=0.1155 ps=0.97 w=0.42 l=0.15
X210 x7.x1.x2.CLK.t0 a_15000_n1881.t4 dvdd.t83 dvdd.t82 sky130_fd_pr__pfet_01v8_hvt ad=0.1696 pd=1.81 as=0.1841 ps=1.26 w=0.64 l=0.15
X211 dvdd_ip.t16 standby_ip.t9 dvdd.t78 dvdd.t77 sky130_fd_pr__pfet_01v8 ad=0.58 pd=4.29 as=0.58 ps=4.29 w=4 l=0.5
X212 a_2132_n14926.t0 a_18932_n14760.t0 dvss sky130_fd_pr__res_xhigh_po_0p35 l=82
X213 x7.x2.x3.CLK.t0 a_17359_n2791.t3 dvdd.t35 dvdd.t4 sky130_fd_pr__pfet_01v8_hvt ad=0.26 pd=2.52 as=0.154 ps=1.335 w=1 l=0.15
X214 x7.x1.x3.Q.t1 a_19003_n1943.t4 dvss.t103 dvss.t102 sky130_fd_pr__nfet_01v8 ad=0.169 pd=1.82 as=0.169 ps=1.82 w=0.65 l=0.15
X215 xout.t4 xin.t14 dvss dvss sky130_fd_pr__nfet_g5v0d10v5 ad=0.58 pd=4.29 as=0.58 ps=4.29 w=4 l=0.5
X216 avdd.t16 ena_b_33.t6 avdd_ip.t5 avdd.t15 sky130_fd_pr__pfet_g5v0d10v5 ad=0.58 pd=4.29 as=0.58 ps=4.29 w=4 l=0.5
X217 a_16273_n2549.t0 a_16055_n2791.t5 dvss.t67 dvss.t66 sky130_fd_pr__nfet_01v8 ad=0.0999 pd=0.985 as=0.1346 ps=1.15 w=0.64 l=0.15
X218 a_16151_n2791.t0 a_15705_n2791.t3 a_16055_n2791.t1 dvss.t45 sky130_fd_pr__special_nfet_01v8 ad=0.1401 pd=1.1 as=0.0594 ps=0.69 w=0.36 l=0.15
X219 vg1.t4 xin.t5 sky130_fd_pr__cap_mim_m3_1 l=22 w=22
X220 dvss xin.t15 xout.t6 dvss sky130_fd_pr__nfet_g5v0d10v5 ad=0.58 pd=4.29 as=0.58 ps=4.29 w=4 l=0.5
X221 dvss_ip inv_m1.t4 inv_m2.t1 dvss_ip sky130_fd_pr__nfet_01v8 ad=0.0725 pd=0.79 as=0.145 ps=1.58 w=0.5 l=1
X222 a_2130_n19184.t1 a_24530_n19018.t0 dvss sky130_fd_pr__res_xhigh_po_0p35 l=110
X223 dvdd_ip.t44 vbp.t10 dvdd_ip.t43 dvdd_ip.t42 sky130_fd_pr__pfet_01v8 ad=0.58 pd=4.58 as=0 ps=0 w=2 l=2
X224 inv_in.t5 a_17576_n6897.t0 sky130_fd_pr__cap_mim_m3_1 l=10 w=10
X225 dvdd.t138 a_4857_n1521.t2 standby_ip.t1 dvdd.t137 sky130_fd_pr__pfet_01v8_hvt ad=0.11455 pd=1.08 as=0.2054 ps=2.1 w=0.79 l=0.15
X226 a_14035_n1997.t0 ena_ip.t11 a_14009_n2404.t2 dvss.t98 sky130_fd_pr__nfet_01v8 ad=0.06825 pd=0.86 as=0.169 ps=1.82 w=0.65 l=0.15
X227 a_17913_n2791.t0 a_17747_n2791.t3 dvdd.t21 dvdd.t20 sky130_fd_pr__pfet_01v8_hvt ad=0.1664 pd=1.8 as=0.0864 ps=0.91 w=0.64 l=0.15
X228 a_4857_n1521.t1 standby.t2 dvss.t2 dvss.t1 sky130_fd_pr__nfet_01v8 ad=0.1352 pd=1.56 as=0.0754 ps=0.81 w=0.52 l=0.15
X229 a_10620_n9002.t0 a_24220_n9168.t1 dvss_ip sky130_fd_pr__res_xhigh_po_0p35 l=66
X230 a_18263_n2791.t2 a_17747_n2791.t4 a_18168_n2791.t3 dvss.t179 sky130_fd_pr__special_nfet_01v8 ad=0.0594 pd=0.69 as=0.066 ps=0.745 w=0.36 l=0.15
X231 a_14009_n2404.t3 x4.in_b.t10 a_14035_n2281.t1 dvss.t98 sky130_fd_pr__nfet_01v8 ad=0.169 pd=1.82 as=0.10725 ps=0.98 w=0.65 l=0.15
X232 a_16620_n1869.t0 a_15539_n2241.t3 a_16273_n2273.t1 dvdd.t104 sky130_fd_pr__pfet_01v8_hvt ad=0.0588 pd=0.7 as=0.12915 ps=1.185 w=0.42 l=0.15
X233 a_18263_n1869.t1 a_17913_n2241.t4 a_18168_n1881.t0 dvdd.t18 sky130_fd_pr__pfet_01v8_hvt ad=0.07245 pd=0.765 as=0.0651 ps=0.73 w=0.42 l=0.15
X234 a_10620_n9002.t1 a_24220_n8836.t1 dvss_ip sky130_fd_pr__res_xhigh_po_0p35 l=66
X235 dvdd.t169 x7.x1.x4.CLK.t3 a_19955_n2241.t1 dvdd.t119 sky130_fd_pr__pfet_01v8_hvt ad=0.0864 pd=0.91 as=0.1664 ps=1.8 w=0.64 l=0.15
X236 a_2130_n20180.t1 a_24530_n20346.t0 dvss sky130_fd_pr__res_xhigh_po_0p35 l=110
X237 dvdd_ip.t56 dvss_ip sky130_fd_pr__cap_mim_m3_1 l=10 w=10
X238 ena_b_33.t2 ena_33.t4 avdd.t19 avdd.t4 sky130_fd_pr__pfet_g5v0d10v5 ad=0.29 pd=2.58 as=0.29 ps=2.58 w=1 l=4
X239 xout.t3 xin.t16 dvss dvss sky130_fd_pr__nfet_g5v0d10v5 ad=0.58 pd=4.29 as=0.58 ps=4.29 w=4 l=0.5
X240 avdd.t12 standby_33.t4 x4.out_b.t0 avdd.t0 sky130_fd_pr__pfet_g5v0d10v5 ad=0.29 pd=2.58 as=0.29 ps=2.58 w=1 l=4
X241 a_20579_n2247.t1 a_19955_n2241.t7 a_20471_n1869.t1 dvdd.t103 sky130_fd_pr__pfet_01v8_hvt ad=0.1155 pd=0.97 as=0.07245 ps=0.765 w=0.42 l=0.15
X242 dvdd.t44 a_16273_n2273.t5 a_16163_n2247.t1 dvdd.t43 sky130_fd_pr__pfet_01v8_hvt ad=0.07035 pd=0.755 as=0.1155 ps=0.97 w=0.42 l=0.15
X243 a_15000_n2791.t2 dout_ip.t9 dvdd.t118 dvdd.t52 sky130_fd_pr__pfet_01v8_hvt ad=0.0609 pd=0.71 as=0.1113 ps=1.37 w=0.42 l=0.15
X244 dvdd.t156 a_18828_n1869.t5 a_19003_n1943.t0 dvdd.t63 sky130_fd_pr__pfet_01v8_hvt ad=0.2132 pd=1.67 as=0.0567 ps=0.69 w=0.42 l=0.15
X245 a_2130_n22172.t0 a_24530_n22006.t0 dvss sky130_fd_pr__res_xhigh_po_0p35 l=110
X246 dvss xin.t17 xout.t9 dvss sky130_fd_pr__nfet_g5v0d10v5 ad=0.58 pd=4.29 as=0.58 ps=4.29 w=4 l=0.5
X247 avdd_ip.t31 dvss sky130_fd_pr__cap_mim_m3_1 l=7 w=7
X248 a_15705_n2241.t0 a_15539_n2241.t4 dvdd.t155 dvdd.t24 sky130_fd_pr__pfet_01v8_hvt ad=0.1664 pd=1.8 as=0.0864 ps=0.91 w=0.64 l=0.15
X249 a_2130_n21840.t1 a_24530_n22006.t1 dvss sky130_fd_pr__res_xhigh_po_0p35 l=110
X250 avdd_ip.t19 vbreg.t16 xout.t16 avdd_ip.t7 sky130_fd_pr__pfet_g5v0d10v5 ad=1.16 pd=8.58 as=1.16 ps=8.58 w=4 l=2
X251 dvdd.t47 x7.x2.x3.CLK.t3 a_17747_n2791.t0 dvdd.t46 sky130_fd_pr__pfet_01v8_hvt ad=0.0864 pd=0.91 as=0.1664 ps=1.8 w=0.64 l=0.15
X252 a_2132_n16586.t0 a_18932_n16420.t1 dvss sky130_fd_pr__res_xhigh_po_0p35 l=82
X253 dvss xin.t18 dvss dvss sky130_fd_pr__nfet_g5v0d10v5 ad=1.16 pd=8.58 as=0 ps=0 w=4 l=0.5
X254 a_10620_n8670.t1 a_24220_n8836.t0 dvss_ip sky130_fd_pr__res_xhigh_po_0p35 l=66
X255 a_17576_n6897.t1 vn.t9 a_17576_n6897.t1 dvss_ip sky130_fd_pr__nfet_01v8 ad=0.58 pd=4.29 as=0 ps=0 w=4 l=2
X256 x7.x1.x4.CLK.t1 a_19567_n2247.t3 dvdd.t149 dvdd.t108 sky130_fd_pr__pfet_01v8_hvt ad=0.26 pd=2.52 as=0.154 ps=1.335 w=1 l=0.15
X257 a_2132_n17250.t1 a_18932_n17084.t1 dvss sky130_fd_pr__res_xhigh_po_0p35 l=82
X258 a_14009_n2701.t0 x7.x5.TE_B.t5 dvdd.t40 dvdd.t39 sky130_fd_pr__pfet_01v8_hvt ad=0.1092 pd=1.36 as=0.10855 ps=1.005 w=0.42 l=0.15
X259 dvss.t25 x7.x2.x4.CLK.t4 a_19955_n2791.t0 dvss.t24 sky130_fd_pr__nfet_01v8 ad=0.0567 pd=0.69 as=0.1092 ps=1.36 w=0.42 l=0.15
X260 dvss.t257 standby_ip.t10 dout_ip.t4 dvss.t256 sky130_fd_pr__nfet_01v8 ad=0.145 pd=1.58 as=0.145 ps=1.58 w=0.5 l=4