* NGSPICE file created from sky130_be_ip__lsxo.ext - technology: sky130A

.subckt sky130_fd_pr__res_xhigh_po_0p35_WHP78W a_131_6584# a_n367_6584# a_n1031_n7016#
+ a_961_n7016# a_n201_n7016# a_n699_n7016# a_n865_6584# a_463_n7016# a_463_6584# a_n699_6584#
+ a_n1197_6584# a_297_6584# a_1127_n7016# a_n533_n7016# a_961_6584# a_n35_n7016# a_795_n7016#
+ a_795_6584# a_n201_6584# a_629_6584# a_297_n7016# a_629_n7016# a_n35_6584# a_n865_n7016#
+ a_n1197_n7016# a_n367_n7016# a_n533_6584# a_n1327_n7146# a_131_n7016# a_n1031_6584#
+ a_1127_6584#
X0 a_n699_6584# a_n699_n7016# a_n1327_n7146# sky130_fd_pr__res_xhigh_po_0p35 l=66
X1 a_131_6584# a_131_n7016# a_n1327_n7146# sky130_fd_pr__res_xhigh_po_0p35 l=66
X2 a_n1197_6584# a_n1197_n7016# a_n1327_n7146# sky130_fd_pr__res_xhigh_po_0p35 l=66
X3 a_n533_6584# a_n533_n7016# a_n1327_n7146# sky130_fd_pr__res_xhigh_po_0p35 l=66
X4 a_1127_6584# a_1127_n7016# a_n1327_n7146# sky130_fd_pr__res_xhigh_po_0p35 l=66
X5 a_463_6584# a_463_n7016# a_n1327_n7146# sky130_fd_pr__res_xhigh_po_0p35 l=66
X6 a_629_6584# a_629_n7016# a_n1327_n7146# sky130_fd_pr__res_xhigh_po_0p35 l=66
X7 a_n1031_6584# a_n1031_n7016# a_n1327_n7146# sky130_fd_pr__res_xhigh_po_0p35 l=66
X8 a_n35_6584# a_n35_n7016# a_n1327_n7146# sky130_fd_pr__res_xhigh_po_0p35 l=66
X9 a_961_6584# a_961_n7016# a_n1327_n7146# sky130_fd_pr__res_xhigh_po_0p35 l=66
X10 a_n367_6584# a_n367_n7016# a_n1327_n7146# sky130_fd_pr__res_xhigh_po_0p35 l=66
X11 a_297_6584# a_297_n7016# a_n1327_n7146# sky130_fd_pr__res_xhigh_po_0p35 l=66
X12 a_n865_6584# a_n865_n7016# a_n1327_n7146# sky130_fd_pr__res_xhigh_po_0p35 l=66
X13 a_795_6584# a_795_n7016# a_n1327_n7146# sky130_fd_pr__res_xhigh_po_0p35 l=66
X14 a_n201_6584# a_n201_n7016# a_n1327_n7146# sky130_fd_pr__res_xhigh_po_0p35 l=66
C0 a_131_6584# a_n35_6584# 0.296258f
C1 a_n1197_6584# a_n1031_6584# 0.296258f
C2 a_n699_n7016# a_n533_n7016# 0.296258f
C3 a_1127_n7016# a_961_n7016# 0.296258f
C4 a_961_n7016# a_795_n7016# 0.296258f
C5 a_n865_n7016# a_n1031_n7016# 0.296258f
C6 a_n201_n7016# a_n367_n7016# 0.296258f
C7 a_n1197_n7016# a_n1031_n7016# 0.296258f
C8 a_795_6584# a_961_6584# 0.296258f
C9 a_463_n7016# a_297_n7016# 0.296258f
C10 a_629_n7016# a_795_n7016# 0.296258f
C11 a_n865_n7016# a_n699_n7016# 0.296258f
C12 a_n367_6584# a_n533_6584# 0.296258f
C13 a_795_6584# a_629_6584# 0.296258f
C14 a_n1031_6584# a_n865_6584# 0.296258f
C15 a_629_6584# a_463_6584# 0.296258f
C16 a_n367_n7016# a_n533_n7016# 0.296258f
C17 a_n201_6584# a_n367_6584# 0.296258f
C18 a_297_6584# a_463_6584# 0.296258f
C19 a_n699_6584# a_n533_6584# 0.296258f
C20 a_n35_n7016# a_n201_n7016# 0.296258f
C21 a_n699_6584# a_n865_6584# 0.296258f
C22 a_1127_6584# a_961_6584# 0.296258f
C23 a_629_n7016# a_463_n7016# 0.296258f
C24 a_297_6584# a_131_6584# 0.296258f
C25 a_n35_6584# a_n201_6584# 0.296258f
C26 a_297_n7016# a_131_n7016# 0.296258f
C27 a_n35_n7016# a_131_n7016# 0.296258f
C28 a_1127_n7016# a_n1327_n7146# 0.387223f
C29 a_1127_6584# a_n1327_n7146# 0.387223f
C30 a_961_n7016# a_n1327_n7146# 0.17691f
C31 a_961_6584# a_n1327_n7146# 0.17691f
C32 a_795_n7016# a_n1327_n7146# 0.17691f
C33 a_795_6584# a_n1327_n7146# 0.17691f
C34 a_629_n7016# a_n1327_n7146# 0.17691f
C35 a_629_6584# a_n1327_n7146# 0.17691f
C36 a_463_n7016# a_n1327_n7146# 0.17691f
C37 a_463_6584# a_n1327_n7146# 0.17691f
C38 a_297_n7016# a_n1327_n7146# 0.17691f
C39 a_297_6584# a_n1327_n7146# 0.17691f
C40 a_131_n7016# a_n1327_n7146# 0.17691f
C41 a_131_6584# a_n1327_n7146# 0.17691f
C42 a_n35_n7016# a_n1327_n7146# 0.17691f
C43 a_n35_6584# a_n1327_n7146# 0.17691f
C44 a_n201_n7016# a_n1327_n7146# 0.17691f
C45 a_n201_6584# a_n1327_n7146# 0.17691f
C46 a_n367_n7016# a_n1327_n7146# 0.17691f
C47 a_n367_6584# a_n1327_n7146# 0.17691f
C48 a_n533_n7016# a_n1327_n7146# 0.17691f
C49 a_n533_6584# a_n1327_n7146# 0.17691f
C50 a_n699_n7016# a_n1327_n7146# 0.17691f
C51 a_n699_6584# a_n1327_n7146# 0.17691f
C52 a_n865_n7016# a_n1327_n7146# 0.17691f
C53 a_n865_6584# a_n1327_n7146# 0.17691f
C54 a_n1031_n7016# a_n1327_n7146# 0.17691f
C55 a_n1031_6584# a_n1327_n7146# 0.17691f
C56 a_n1197_n7016# a_n1327_n7146# 0.387223f
C57 a_n1197_6584# a_n1327_n7146# 0.387223f
.ends

.subckt sky130_fd_pr__res_xhigh_po_0p35_M35ED8 a_1210_n8616# a_546_8184# a_878_n8616#
+ a_n118_n8616# a_1210_8184# a_n450_8184# a_n1944_8184# a_n1778_n8616# a_1044_8184#
+ a_n284_8184# a_n948_n8616# a_n1778_8184# a_878_8184# a_380_n8616# a_1542_n8616#
+ a_712_n8616# a_2040_8184# a_n1280_n8616# a_2040_n8616# a_1542_8184# a_n118_8184#
+ a_n1612_n8616# a_n450_n8616# a_1044_n8616# a_214_n8616# a_n782_8184# a_1376_8184#
+ a_n1280_8184# a_n2110_n8616# a_380_8184# a_n1114_n8616# a_n616_8184# a_1874_n8616#
+ a_n1114_8184# a_48_n8616# a_214_8184# a_1874_8184# a_n1944_n8616# a_1376_n8616#
+ a_n782_n8616# a_546_n8616# a_n2110_8184# a_1708_n8616# a_1708_8184# a_48_8184# a_n1612_8184#
+ a_n1446_n8616# a_n2240_n8746# a_712_8184# a_n284_n8616# a_n948_8184# a_n616_n8616#
+ a_n1446_8184#
X0 a_n616_8184# a_n616_n8616# a_n2240_n8746# sky130_fd_pr__res_xhigh_po_0p35 l=82
X1 a_1044_8184# a_1044_n8616# a_n2240_n8746# sky130_fd_pr__res_xhigh_po_0p35 l=82
X2 a_546_8184# a_546_n8616# a_n2240_n8746# sky130_fd_pr__res_xhigh_po_0p35 l=82
X3 a_380_8184# a_380_n8616# a_n2240_n8746# sky130_fd_pr__res_xhigh_po_0p35 l=82
X4 a_n1114_8184# a_n1114_n8616# a_n2240_n8746# sky130_fd_pr__res_xhigh_po_0p35 l=82
X5 a_1708_8184# a_1708_n8616# a_n2240_n8746# sky130_fd_pr__res_xhigh_po_0p35 l=82
X6 a_1542_8184# a_1542_n8616# a_n2240_n8746# sky130_fd_pr__res_xhigh_po_0p35 l=82
X7 a_2040_8184# a_2040_n8616# a_n2240_n8746# sky130_fd_pr__res_xhigh_po_0p35 l=82
X8 a_n450_8184# a_n450_n8616# a_n2240_n8746# sky130_fd_pr__res_xhigh_po_0p35 l=82
X9 a_n1612_8184# a_n1612_n8616# a_n2240_n8746# sky130_fd_pr__res_xhigh_po_0p35 l=82
X10 a_n284_8184# a_n284_n8616# a_n2240_n8746# sky130_fd_pr__res_xhigh_po_0p35 l=82
X11 a_48_8184# a_48_n8616# a_n2240_n8746# sky130_fd_pr__res_xhigh_po_0p35 l=82
X12 a_n948_8184# a_n948_n8616# a_n2240_n8746# sky130_fd_pr__res_xhigh_po_0p35 l=82
X13 a_n782_8184# a_n782_n8616# a_n2240_n8746# sky130_fd_pr__res_xhigh_po_0p35 l=82
X14 a_1376_8184# a_1376_n8616# a_n2240_n8746# sky130_fd_pr__res_xhigh_po_0p35 l=82
X15 a_878_8184# a_878_n8616# a_n2240_n8746# sky130_fd_pr__res_xhigh_po_0p35 l=82
X16 a_n1446_8184# a_n1446_n8616# a_n2240_n8746# sky130_fd_pr__res_xhigh_po_0p35 l=82
X17 a_n2110_8184# a_n2110_n8616# a_n2240_n8746# sky130_fd_pr__res_xhigh_po_0p35 l=82
X18 a_1874_8184# a_1874_n8616# a_n2240_n8746# sky130_fd_pr__res_xhigh_po_0p35 l=82
X19 a_n1944_8184# a_n1944_n8616# a_n2240_n8746# sky130_fd_pr__res_xhigh_po_0p35 l=82
X20 a_214_8184# a_214_n8616# a_n2240_n8746# sky130_fd_pr__res_xhigh_po_0p35 l=82
X21 a_n1280_8184# a_n1280_n8616# a_n2240_n8746# sky130_fd_pr__res_xhigh_po_0p35 l=82
X22 a_1210_8184# a_1210_n8616# a_n2240_n8746# sky130_fd_pr__res_xhigh_po_0p35 l=82
X23 a_712_8184# a_712_n8616# a_n2240_n8746# sky130_fd_pr__res_xhigh_po_0p35 l=82
X24 a_n118_8184# a_n118_n8616# a_n2240_n8746# sky130_fd_pr__res_xhigh_po_0p35 l=82
X25 a_n1778_8184# a_n1778_n8616# a_n2240_n8746# sky130_fd_pr__res_xhigh_po_0p35 l=82
C0 a_1210_n8616# a_1376_n8616# 0.296258f
C1 a_n450_8184# a_n616_8184# 0.296258f
C2 a_1542_8184# a_1708_8184# 0.296258f
C3 a_878_8184# a_1044_8184# 0.296258f
C4 a_1874_n8616# a_1708_n8616# 0.296258f
C5 a_2040_n8616# a_1874_n8616# 0.296258f
C6 a_n1944_8184# a_n1778_8184# 0.296258f
C7 a_n1944_n8616# a_n2110_n8616# 0.296258f
C8 a_n1944_n8616# a_n1778_n8616# 0.296258f
C9 a_n118_n8616# a_n284_n8616# 0.296258f
C10 a_n948_8184# a_n782_8184# 0.296258f
C11 a_n616_n8616# a_n782_n8616# 0.296258f
C12 a_n118_n8616# a_48_n8616# 0.296258f
C13 a_n450_n8616# a_n616_n8616# 0.296258f
C14 a_214_8184# a_380_8184# 0.296258f
C15 a_1210_8184# a_1376_8184# 0.296258f
C16 a_n1280_n8616# a_n1446_n8616# 0.296258f
C17 a_1542_8184# a_1376_8184# 0.296258f
C18 a_1044_n8616# a_1210_n8616# 0.296258f
C19 a_712_8184# a_546_8184# 0.296258f
C20 a_n948_8184# a_n1114_8184# 0.296258f
C21 a_214_n8616# a_48_n8616# 0.296258f
C22 a_2040_8184# a_1874_8184# 0.296258f
C23 a_878_n8616# a_1044_n8616# 0.296258f
C24 a_214_n8616# a_380_n8616# 0.296258f
C25 a_n118_8184# a_n284_8184# 0.296258f
C26 a_n450_n8616# a_n284_n8616# 0.296258f
C27 a_n1114_n8616# a_n948_n8616# 0.296258f
C28 a_380_8184# a_546_8184# 0.296258f
C29 a_n782_n8616# a_n948_n8616# 0.296258f
C30 a_878_8184# a_712_8184# 0.296258f
C31 a_n616_8184# a_n782_8184# 0.296258f
C32 a_1542_n8616# a_1376_n8616# 0.296258f
C33 a_n1446_8184# a_n1280_8184# 0.296258f
C34 a_1210_8184# a_1044_8184# 0.296258f
C35 a_n1612_n8616# a_n1446_n8616# 0.296258f
C36 a_214_8184# a_48_8184# 0.296258f
C37 a_n1944_8184# a_n2110_8184# 0.296258f
C38 a_n1446_8184# a_n1612_8184# 0.296258f
C39 a_n1114_n8616# a_n1280_n8616# 0.296258f
C40 a_n1612_n8616# a_n1778_n8616# 0.296258f
C41 a_n450_8184# a_n284_8184# 0.296258f
C42 a_n1280_8184# a_n1114_8184# 0.296258f
C43 a_n1778_8184# a_n1612_8184# 0.296258f
C44 a_n118_8184# a_48_8184# 0.296258f
C45 a_712_n8616# a_546_n8616# 0.296258f
C46 a_878_n8616# a_712_n8616# 0.296258f
C47 a_1708_8184# a_1874_8184# 0.296258f
C48 a_1542_n8616# a_1708_n8616# 0.296258f
C49 a_380_n8616# a_546_n8616# 0.296258f
C50 a_2040_n8616# a_n2240_n8746# 0.387223f
C51 a_2040_8184# a_n2240_n8746# 0.387223f
C52 a_1874_n8616# a_n2240_n8746# 0.17691f
C53 a_1874_8184# a_n2240_n8746# 0.17691f
C54 a_1708_n8616# a_n2240_n8746# 0.17691f
C55 a_1708_8184# a_n2240_n8746# 0.17691f
C56 a_1542_n8616# a_n2240_n8746# 0.17691f
C57 a_1542_8184# a_n2240_n8746# 0.17691f
C58 a_1376_n8616# a_n2240_n8746# 0.17691f
C59 a_1376_8184# a_n2240_n8746# 0.17691f
C60 a_1210_n8616# a_n2240_n8746# 0.17691f
C61 a_1210_8184# a_n2240_n8746# 0.17691f
C62 a_1044_n8616# a_n2240_n8746# 0.17691f
C63 a_1044_8184# a_n2240_n8746# 0.17691f
C64 a_878_n8616# a_n2240_n8746# 0.17691f
C65 a_878_8184# a_n2240_n8746# 0.17691f
C66 a_712_n8616# a_n2240_n8746# 0.17691f
C67 a_712_8184# a_n2240_n8746# 0.17691f
C68 a_546_n8616# a_n2240_n8746# 0.17691f
C69 a_546_8184# a_n2240_n8746# 0.17691f
C70 a_380_n8616# a_n2240_n8746# 0.17691f
C71 a_380_8184# a_n2240_n8746# 0.17691f
C72 a_214_n8616# a_n2240_n8746# 0.17691f
C73 a_214_8184# a_n2240_n8746# 0.17691f
C74 a_48_n8616# a_n2240_n8746# 0.17691f
C75 a_48_8184# a_n2240_n8746# 0.17691f
C76 a_n118_n8616# a_n2240_n8746# 0.17691f
C77 a_n118_8184# a_n2240_n8746# 0.17691f
C78 a_n284_n8616# a_n2240_n8746# 0.17691f
C79 a_n284_8184# a_n2240_n8746# 0.17691f
C80 a_n450_n8616# a_n2240_n8746# 0.17691f
C81 a_n450_8184# a_n2240_n8746# 0.17691f
C82 a_n616_n8616# a_n2240_n8746# 0.17691f
C83 a_n616_8184# a_n2240_n8746# 0.17691f
C84 a_n782_n8616# a_n2240_n8746# 0.17691f
C85 a_n782_8184# a_n2240_n8746# 0.17691f
C86 a_n948_n8616# a_n2240_n8746# 0.17691f
C87 a_n948_8184# a_n2240_n8746# 0.17691f
C88 a_n1114_n8616# a_n2240_n8746# 0.17691f
C89 a_n1114_8184# a_n2240_n8746# 0.17691f
C90 a_n1280_n8616# a_n2240_n8746# 0.17691f
C91 a_n1280_8184# a_n2240_n8746# 0.17691f
C92 a_n1446_n8616# a_n2240_n8746# 0.17691f
C93 a_n1446_8184# a_n2240_n8746# 0.17691f
C94 a_n1612_n8616# a_n2240_n8746# 0.17691f
C95 a_n1612_8184# a_n2240_n8746# 0.17691f
C96 a_n1778_n8616# a_n2240_n8746# 0.17691f
C97 a_n1778_8184# a_n2240_n8746# 0.17691f
C98 a_n1944_n8616# a_n2240_n8746# 0.17691f
C99 a_n1944_8184# a_n2240_n8746# 0.17691f
C100 a_n2110_n8616# a_n2240_n8746# 0.387223f
C101 a_n2110_8184# a_n2240_n8746# 0.387223f
.ends

.subckt sky130_fd_sc_hd__buf_1 A VGND VNB VPB VPWR X
X0 VPWR A a_27_47# VPB sky130_fd_pr__pfet_01v8_hvt ad=0.11455 pd=1.08 as=0.2054 ps=2.1 w=0.79 l=0.15
X1 X a_27_47# VGND VNB sky130_fd_pr__nfet_01v8 ad=0.1352 pd=1.56 as=0.0754 ps=0.81 w=0.52 l=0.15
X2 X a_27_47# VPWR VPB sky130_fd_pr__pfet_01v8_hvt ad=0.2054 pd=2.1 as=0.11455 ps=1.08 w=0.79 l=0.15
X3 VGND A a_27_47# VNB sky130_fd_pr__nfet_01v8 ad=0.0754 pd=0.81 as=0.1352 ps=1.56 w=0.52 l=0.15
C0 A a_27_47# 0.181449f
C1 VPWR a_27_47# 0.135101f
C2 X a_27_47# 0.107446f
C3 VGND a_27_47# 0.104759f
C4 VGND VNB 0.207322f
C5 VPWR VNB 0.175402f
C6 A VNB 0.164055f
C7 VPB VNB 0.338976f
C8 a_27_47# VNB 0.207781f
.ends

.subckt sky130_fd_pr__res_xhigh_po_0p35_VTNT3C a_n118_7484# a_214_n7916# a_48_n7916#
+ a_214_7484# a_n414_n8046# a_48_7484# a_n284_n7916# a_n118_n7916# a_n284_7484#
X0 a_n284_7484# a_n284_n7916# a_n414_n8046# sky130_fd_pr__res_xhigh_po_0p35 l=75
X1 a_48_7484# a_48_n7916# a_n414_n8046# sky130_fd_pr__res_xhigh_po_0p35 l=75
X2 a_214_7484# a_214_n7916# a_n414_n8046# sky130_fd_pr__res_xhigh_po_0p35 l=75
X3 a_n118_7484# a_n118_n7916# a_n414_n8046# sky130_fd_pr__res_xhigh_po_0p35 l=75
C0 a_n118_n7916# a_n284_n7916# 0.296258f
C1 a_214_n7916# a_48_n7916# 0.296258f
C2 a_n118_7484# a_n284_7484# 0.296258f
C3 a_48_7484# a_n118_7484# 0.296258f
C4 a_48_7484# a_214_7484# 0.296258f
C5 a_n118_n7916# a_48_n7916# 0.296258f
C6 a_214_n7916# a_n414_n8046# 0.387223f
C7 a_214_7484# a_n414_n8046# 0.387223f
C8 a_48_n7916# a_n414_n8046# 0.17691f
C9 a_48_7484# a_n414_n8046# 0.17691f
C10 a_n118_n7916# a_n414_n8046# 0.17691f
C11 a_n118_7484# a_n414_n8046# 0.17691f
C12 a_n284_n7916# a_n414_n8046# 0.387223f
C13 a_n284_7484# a_n414_n8046# 0.387223f
.ends

.subckt sky130_fd_pr__diode_pw2nd_05v5_FT76RJ a_n147_n147# a_n45_n45#
X0 a_n147_n147# a_n45_n45# sky130_fd_pr__diode_pw2nd_05v5 perim=1.8e+06 area=2.025e+11
C0 a_n45_n45# a_n147_n147# 0.169345f
.ends

.subckt sky130_fd_pr__nfet_01v8_LHQHT5 a_n29_n400# a_887_n400# a_429_n400# a_n887_n488#
+ a_n1047_n574# a_n429_n488# a_487_n488# a_n945_n400# a_29_n488# a_n487_n400#
X0 a_n487_n400# a_n887_n488# a_n945_n400# a_n1047_n574# sky130_fd_pr__nfet_01v8 ad=0.58 pd=4.29 as=1.16 ps=8.58 w=4 l=2
X1 a_n29_n400# a_n429_n488# a_n487_n400# a_n1047_n574# sky130_fd_pr__nfet_01v8 ad=0.58 pd=4.29 as=0.58 ps=4.29 w=4 l=2
X2 a_429_n400# a_29_n488# a_n29_n400# a_n1047_n574# sky130_fd_pr__nfet_01v8 ad=0.58 pd=4.29 as=0.58 ps=4.29 w=4 l=2
X3 a_887_n400# a_487_n488# a_429_n400# a_n1047_n574# sky130_fd_pr__nfet_01v8 ad=1.16 pd=8.58 as=0.58 ps=4.29 w=4 l=2
C0 a_887_n400# a_n1047_n574# 0.336596f
C1 a_429_n400# a_n1047_n574# 0.216749f
C2 a_n29_n400# a_n1047_n574# 0.216749f
C3 a_n487_n400# a_n1047_n574# 0.216749f
C4 a_n945_n400# a_n1047_n574# 0.336596f
C5 a_487_n488# a_n1047_n574# 1.23765f
C6 a_29_n488# a_n1047_n574# 1.17381f
C7 a_n429_n488# a_n1047_n574# 1.17381f
C8 a_n887_n488# a_n1047_n574# 1.23765f
.ends

.subckt sky130_fd_pr__nfet_01v8_69TQ3K a_n260_n274# a_100_n100# a_n158_n100# a_n100_n188#
X0 a_100_n100# a_n100_n188# a_n158_n100# a_n260_n274# sky130_fd_pr__nfet_01v8 ad=0.29 pd=2.58 as=0.29 ps=2.58 w=1 l=1
C0 a_100_n100# a_n260_n274# 0.146358f
C1 a_n158_n100# a_n260_n274# 0.146358f
C2 a_n100_n188# a_n260_n274# 0.724275f
.ends

.subckt sky130_fd_pr__pfet_01v8_3HMWVM 0. w_n296_n319# a_n100_n197# a_100_n100# a_n158_n100#
X0 a_100_n100# a_n100_n197# a_n158_n100# w_n296_n319# sky130_fd_pr__pfet_01v8 ad=0.29 pd=2.58 as=0.29 ps=2.58 w=1 l=1
C0 w_n296_n319# a_n100_n197# 0.434431f
C1 a_n100_n197# 0. 0.310981f
C2 w_n296_n319# 0. 1.64714f
.ends

.subckt sky130_fd_pr__nfet_g5v0d10v5_9YEQ2B a_29_n388# a_n129_n388# a_n321_n522# a_n29_n300#
+ a_n187_n300# a_129_n300#
X0 a_129_n300# a_29_n388# a_n29_n300# a_n321_n522# sky130_fd_pr__nfet_g5v0d10v5 ad=0.87 pd=6.58 as=0.435 ps=3.29 w=3 l=0.5
X1 a_n29_n300# a_n129_n388# a_n187_n300# a_n321_n522# sky130_fd_pr__nfet_g5v0d10v5 ad=0.435 pd=3.29 as=0.87 ps=6.58 w=3 l=0.5
C0 a_n129_n388# a_29_n388# 0.104496f
C1 a_n29_n300# a_129_n300# 0.268329f
C2 a_n29_n300# a_n187_n300# 0.268329f
C3 a_129_n300# a_n321_n522# 0.329514f
C4 a_n187_n300# a_n321_n522# 0.329514f
C5 a_29_n388# a_n321_n522# 0.368192f
C6 a_n129_n388# a_n321_n522# 0.368192f
.ends

.subckt sky130_fd_pr__pfet_g5v0d10v5_VHBZVD 0. a_n400_n197# a_400_n100# w_n658_n397#
+ a_n458_n100#
X0 a_400_n100# a_n400_n197# a_n458_n100# w_n658_n397# sky130_fd_pr__pfet_g5v0d10v5 ad=0.29 pd=2.58 as=0.29 ps=2.58 w=1 l=4
C0 w_n658_n397# a_n400_n197# 1.31949f
C1 a_n400_n197# 0. 1.01545f
C2 w_n658_n397# 0. 4.01834f
.ends

.subckt level_shift dvdd 0. in in_b out_b out dw_2668_n1758# avss avdd
XXM1 0. in_b 0. in sky130_fd_pr__nfet_01v8_69TQ3K
XXM2 0. dvdd in dvdd in_b sky130_fd_pr__pfet_01v8_3HMWVM
XXM3 in in avss out_b avss avss sky130_fd_pr__nfet_g5v0d10v5_9YEQ2B
XXM4 in_b in_b avss out avss avss sky130_fd_pr__nfet_g5v0d10v5_9YEQ2B
XXM5 0. out avdd avdd out_b sky130_fd_pr__pfet_g5v0d10v5_VHBZVD
XXM6 0. out_b out avdd avdd sky130_fd_pr__pfet_g5v0d10v5_VHBZVD
C0 out_b out 0.606335f
C1 out_b avdd 2.455349f
C2 out in_b 0.852906f
C3 avdd out 2.447048f
C4 avss in 1.40922f
C5 avss out_b 0.796108f
C6 avss in_b 1.423692f
C7 avss dw_2668_n1758# 4.93164f
C8 avss out 0.85934f
C9 avss avdd 0.861367f
C10 out_b in 0.84957f
C11 in dvdd 0.370698f
C12 in in_b 0.605523f
C13 avss 0. 1.518337f
C14 dw_2668_n1758# 0. 4.93164f
C15 avdd 0. 8.316299f
C16 out 0. 1.155064f
C17 in_b 0. 1.345128f
C18 out_b 0. 1.23154f
C19 in 0. 2.261764f
C20 dvdd 0. 2.21807f
.ends

.subckt sky130_fd_pr__nfet_01v8_6G4XAN a_n29_n155# a_29_n243# a_n287_n155# a_n389_n329#
+ a_n229_n243# a_229_55# a_229_n155# a_n287_55# a_n29_55#
X0 a_n29_n155# a_n229_n243# a_n287_n155# a_n389_n329# sky130_fd_pr__nfet_01v8 ad=0.0725 pd=0.79 as=0.145 ps=1.58 w=0.5 l=1
X1 a_229_n155# a_29_n243# a_n29_n155# a_n389_n329# sky130_fd_pr__nfet_01v8 ad=0.145 pd=1.58 as=0.0725 ps=0.79 w=0.5 l=1
X2 a_229_55# a_29_n243# a_n29_55# a_n389_n329# sky130_fd_pr__nfet_01v8 ad=0.145 pd=1.58 as=0.0725 ps=0.79 w=0.5 l=1
X3 a_n29_55# a_n229_n243# a_n287_55# a_n389_n329# sky130_fd_pr__nfet_01v8 ad=0.0725 pd=0.79 as=0.145 ps=1.58 w=0.5 l=1
C0 a_29_n243# a_n229_n243# 0.155031f
C1 a_29_n243# a_n389_n329# 0.884838f
C2 a_n229_n243# a_n389_n329# 0.884838f
.ends

.subckt sky130_fd_sc_hd__and2_0 A B VGND VNB VPB VPWR X
X0 VPWR B a_40_47# VPB sky130_fd_pr__pfet_01v8_hvt ad=0.1841 pd=1.26 as=0.0609 ps=0.71 w=0.42 l=0.15
X1 X a_40_47# VPWR VPB sky130_fd_pr__pfet_01v8_hvt ad=0.1696 pd=1.81 as=0.1841 ps=1.26 w=0.64 l=0.15
X2 VGND B a_123_47# VNB sky130_fd_pr__nfet_01v8 ad=0.0966 pd=0.88 as=0.0441 ps=0.63 w=0.42 l=0.15
X3 X a_40_47# VGND VNB sky130_fd_pr__nfet_01v8 ad=0.1113 pd=1.37 as=0.0966 ps=0.88 w=0.42 l=0.15
X4 a_123_47# A a_40_47# VNB sky130_fd_pr__nfet_01v8 ad=0.0441 pd=0.63 as=0.1113 ps=1.37 w=0.42 l=0.15
X5 a_40_47# A VPWR VPB sky130_fd_pr__pfet_01v8_hvt ad=0.0609 pd=0.71 as=0.1113 ps=1.37 w=0.42 l=0.15
C0 A B 0.117044f
C1 VPWR X 0.111278f
C2 B a_40_47# 0.206108f
C3 VGND X 0.105358f
C4 VPWR a_40_47# 0.141098f
C5 X a_40_47# 0.11426f
C6 A a_40_47# 0.12536f
C7 VGND a_40_47# 0.138964f
C8 VGND VNB 0.300193f
C9 X VNB 0.10272f
C10 VPWR VNB 0.262881f
C11 B VNB 0.121465f
C12 A VNB 0.194569f
C13 VPB VNB 0.516168f
C14 a_40_47# VNB 0.230074f
.ends

.subckt sky130_fd_sc_hd__dfrbp_1 CLK D RESET_B VGND VNB VPB VPWR Q Q_N a_1847_47#
+ a_193_47# a_27_47#
X0 Q a_1283_21# VPWR VPB sky130_fd_pr__pfet_01v8_hvt ad=0.28 pd=2.56 as=0.2132 ps=1.67 w=1 l=0.15
X1 a_805_47# a_761_289# a_639_47# VNB sky130_fd_pr__nfet_01v8 ad=0.0441 pd=0.63 as=0.1401 ps=1.1 w=0.42 l=0.15
X2 VPWR a_1283_21# a_1847_47# VPB sky130_fd_pr__pfet_01v8_hvt ad=0.154 pd=1.335 as=0.1664 ps=1.8 w=0.64 l=0.15
X3 a_1217_47# a_27_47# a_1108_47# VNB sky130_fd_pr__special_nfet_01v8 ad=0.0669 pd=0.75 as=0.0711 ps=0.755 w=0.36 l=0.15
X4 a_1283_21# a_1108_47# a_1462_47# VNB sky130_fd_pr__nfet_01v8 ad=0.1092 pd=1.36 as=0.06405 ps=0.725 w=0.42 l=0.15
X5 a_651_413# a_27_47# a_543_47# VPB sky130_fd_pr__pfet_01v8_hvt ad=0.1155 pd=0.97 as=0.07245 ps=0.765 w=0.42 l=0.15
X6 a_1108_47# a_193_47# a_761_289# VNB sky130_fd_pr__special_nfet_01v8 ad=0.0711 pd=0.755 as=0.0999 ps=0.985 w=0.36 l=0.15
X7 VGND RESET_B a_805_47# VNB sky130_fd_pr__nfet_01v8 ad=0.1346 pd=1.15 as=0.0441 ps=0.63 w=0.42 l=0.15
X8 VPWR CLK a_27_47# VPB sky130_fd_pr__pfet_01v8_hvt ad=0.0864 pd=0.91 as=0.1664 ps=1.8 w=0.64 l=0.15
X9 Q_N a_1847_47# VGND VNB sky130_fd_pr__nfet_01v8 ad=0.169 pd=1.82 as=0.10025 ps=0.985 w=0.65 l=0.15
X10 a_448_47# D VPWR VPB sky130_fd_pr__pfet_01v8_hvt ad=0.0651 pd=0.73 as=0.1092 ps=1.36 w=0.42 l=0.15
X11 VGND a_1283_21# a_1847_47# VNB sky130_fd_pr__nfet_01v8 ad=0.10025 pd=0.985 as=0.1092 ps=1.36 w=0.42 l=0.15
X12 a_761_289# a_543_47# VGND VNB sky130_fd_pr__nfet_01v8 ad=0.0999 pd=0.985 as=0.1346 ps=1.15 w=0.64 l=0.15
X13 Q a_1283_21# VGND VNB sky130_fd_pr__nfet_01v8 ad=0.169 pd=1.82 as=0.169 ps=1.82 w=0.65 l=0.15
X14 a_193_47# a_27_47# VGND VNB sky130_fd_pr__nfet_01v8 ad=0.1092 pd=1.36 as=0.0567 ps=0.69 w=0.42 l=0.15
X15 a_1108_47# a_27_47# a_761_289# VPB sky130_fd_pr__pfet_01v8_hvt ad=0.0588 pd=0.7 as=0.12915 ps=1.185 w=0.42 l=0.15
X16 a_1462_47# RESET_B VGND VNB sky130_fd_pr__nfet_01v8 ad=0.06405 pd=0.725 as=0.12495 ps=1.015 w=0.42 l=0.15
X17 a_543_47# a_27_47# a_448_47# VNB sky130_fd_pr__special_nfet_01v8 ad=0.0594 pd=0.69 as=0.066 ps=0.745 w=0.36 l=0.15
X18 a_543_47# a_193_47# a_448_47# VPB sky130_fd_pr__pfet_01v8_hvt ad=0.07245 pd=0.765 as=0.0651 ps=0.73 w=0.42 l=0.15
X19 a_448_47# D VGND VNB sky130_fd_pr__nfet_01v8 ad=0.066 pd=0.745 as=0.2205 ps=1.89 w=0.42 l=0.15
X20 VPWR a_1283_21# a_1270_413# VPB sky130_fd_pr__pfet_01v8_hvt ad=0.0819 pd=0.81 as=0.0567 ps=0.69 w=0.42 l=0.15
X21 VPWR a_1108_47# a_1283_21# VPB sky130_fd_pr__pfet_01v8_hvt ad=0.2132 pd=1.67 as=0.0567 ps=0.69 w=0.42 l=0.15
X22 a_1270_413# a_193_47# a_1108_47# VPB sky130_fd_pr__pfet_01v8_hvt ad=0.0567 pd=0.69 as=0.0588 ps=0.7 w=0.42 l=0.15
X23 a_193_47# a_27_47# VPWR VPB sky130_fd_pr__pfet_01v8_hvt ad=0.1664 pd=1.8 as=0.0864 ps=0.91 w=0.64 l=0.15
X24 a_1283_21# RESET_B VPWR VPB sky130_fd_pr__pfet_01v8_hvt ad=0.0567 pd=0.69 as=0.0819 ps=0.81 w=0.42 l=0.15
X25 VPWR a_761_289# a_651_413# VPB sky130_fd_pr__pfet_01v8_hvt ad=0.07035 pd=0.755 as=0.1155 ps=0.97 w=0.42 l=0.15
X26 a_639_47# a_193_47# a_543_47# VNB sky130_fd_pr__special_nfet_01v8 ad=0.1401 pd=1.1 as=0.0594 ps=0.69 w=0.36 l=0.15
X27 Q_N a_1847_47# VPWR VPB sky130_fd_pr__pfet_01v8_hvt ad=0.26 pd=2.52 as=0.154 ps=1.335 w=1 l=0.15
X28 VGND a_1283_21# a_1217_47# VNB sky130_fd_pr__nfet_01v8 ad=0.12495 pd=1.015 as=0.0669 ps=0.75 w=0.42 l=0.15
X29 a_651_413# RESET_B VPWR VPB sky130_fd_pr__pfet_01v8_hvt ad=0.1092 pd=1.36 as=0.07035 ps=0.755 w=0.42 l=0.15
X30 VGND CLK a_27_47# VNB sky130_fd_pr__nfet_01v8 ad=0.0567 pd=0.69 as=0.1092 ps=1.36 w=0.42 l=0.15
X31 a_761_289# a_543_47# VPWR VPB sky130_fd_pr__pfet_01v8_hvt ad=0.12915 pd=1.185 as=0.2184 ps=2.2 w=0.84 l=0.15
C0 VPWR a_1847_47# 0.153243f
C1 D VPB 0.137565f
C2 a_27_47# RESET_B 0.296336f
C3 a_1283_21# RESET_B 0.278608f
C4 a_27_47# a_543_47# 0.115353f
C5 VPWR VPB 0.235545f
C6 D a_27_47# 0.132849f
C7 a_27_47# VPWR 0.152297f
C8 VPWR a_1283_21# 0.161911f
C9 a_1108_47# RESET_B 0.236601f
C10 VPWR a_1108_47# 0.171246f
C11 VGND RESET_B 0.288101f
C12 a_761_289# RESET_B 0.166114f
C13 VGND a_543_47# 0.122935f
C14 a_761_289# a_543_47# 0.209641f
C15 a_761_289# VPWR 0.10497f
C16 a_193_47# VPB 0.170766f
C17 a_27_47# a_193_47# 0.906454f
C18 a_543_47# RESET_B 0.153272f
C19 a_1108_47# a_193_47# 0.125324f
C20 VPWR a_543_47# 0.100285f
C21 a_761_289# a_193_47# 0.186387f
C22 a_651_413# VPWR 0.12856f
C23 a_1847_47# a_1283_21# 0.106826f
C24 a_27_47# VPB 0.261876f
C25 a_1283_21# VPB 0.246515f
C26 a_543_47# a_193_47# 0.229804f
C27 D a_193_47# 0.217945f
C28 VPWR a_193_47# 0.396049f
C29 a_1108_47# VPB 0.112685f
C30 a_27_47# a_1108_47# 0.102355f
C31 a_1108_47# a_1283_21# 0.251137f
C32 a_27_47# CLK 0.233602f
C33 a_27_47# VGND 0.253982f
C34 Q a_1847_47# 0.161495f
C35 VGND a_1283_21# 0.266204f
C36 Q a_1283_21# 0.119961f
C37 VGND a_1108_47# 0.148194f
C38 D a_448_47# 0.155634f
C39 VPB RESET_B 0.138482f
C40 VGND VNB 1.17272f
C41 VPWR VNB 0.959088f
C42 RESET_B VNB 0.260061f
C43 D VNB 0.159894f
C44 CLK VNB 0.195254f
C45 VPB VNB 2.1109f
C46 a_1847_47# VNB 0.132899f
C47 a_1108_47# VNB 0.126214f
C48 a_1283_21# VNB 0.478567f
C49 a_543_47# VNB 0.157869f
C50 a_761_289# VNB 0.120848f
C51 a_193_47# VNB 0.272684f
C52 a_27_47# VNB 0.495665f
.ends

.subckt ripple_dly_4 clkin doneb x2/a_27_47# Qb2 x3/a_27_47# ena x2/a_193_47# x4/a_27_47#
+ 0. Qb1 dvdd
Xx1 clkin doneb 0. 0. dvdd dvdd x1/X sky130_fd_sc_hd__and2_0
Xx3 Qb1 Qb2 ena 0. 0. dvdd dvdd x3/Q Qb2 x3/a_1847_47# x3/a_193_47# x3/a_27_47# sky130_fd_sc_hd__dfrbp_1
Xx2 x1/X Qb1 ena 0. 0. dvdd dvdd x2/Q Qb1 x2/a_1847_47# x2/a_193_47# x2/a_27_47# sky130_fd_sc_hd__dfrbp_1
Xx4 Qb2 doneb ena 0. 0. dvdd dvdd x4/Q doneb x4/a_1847_47# x4/a_193_47# x4/a_27_47#
+ sky130_fd_sc_hd__dfrbp_1
C0 ena x4/a_27_47# 0.317074f
C1 x3/a_27_47# x3/a_193_47# -0.298091f
C2 ena x3/a_27_47# 0.317225f
C3 doneb x2/a_193_47# 0.202238f
C4 x2/a_27_47# Qb1 0.497822f
C5 dvdd x1/X 0.143961f
C6 x2/a_27_47# 0. -0.108344f
C7 doneb Qb2 0.141763f
C8 ena Qb1 0.34662f
C9 x4/a_27_47# 0. -0.10834f
C10 doneb x4/a_193_47# 0.74189f
C11 ena 0. 2.192297f
C12 doneb x4/a_1847_47# 0.11114f
C13 x3/a_27_47# 0. -0.10834f
C14 x2/a_27_47# x2/a_193_47# -0.298092f
C15 ena clkin 0.125078f
C16 Qb1 dvdd 0.364399f
C17 doneb x3/a_193_47# 0.199885f
C18 doneb x4/a_27_47# 0.542089f
C19 0. dvdd -0.376178f
C20 ena doneb 0.328336f
C21 Qb2 x3/a_193_47# 0.538587f
C22 ena Qb2 0.346581f
C23 x4/a_27_47# x4/a_193_47# -0.298091f
C24 x3/a_27_47# Qb2 0.497823f
C25 clkin dvdd 0.183034f
C26 doneb x4/a_1283_21# 0.107576f
C27 x2/a_193_47# Qb1 0.538585f
C28 doneb Qb1 0.142549f
C29 doneb 0. 0.217949f
C30 doneb dvdd 2.074138f
C31 ena x2/a_27_47# 0.31541f
C32 Qb2 dvdd 0.364487f
C33 x4/a_1847_47# 0 0.132899f
C34 x4/a_1108_47# 0 0.126214f $ **FLOATING
C35 x4/a_1283_21# 0 0.478567f $ **FLOATING
C36 x4/a_543_47# 0 0.157869f $ **FLOATING
C37 x4/a_761_289# 0 0.120848f $ **FLOATING
C38 x4/a_193_47# 0 0.272684f
C39 x4/a_27_47# 0 0.495665f
C40 0. 0 3.076656f
C41 dvdd 0 9.8956f
C42 ena 0 0.978923f
C43 Qb1 0 0.335308f
C44 x1/X 0 0.180099f
C45 x2/a_1847_47# 0 0.132899f
C46 x2/a_1108_47# 0 0.126214f $ **FLOATING
C47 x2/a_1283_21# 0 0.478567f $ **FLOATING
C48 x2/a_543_47# 0 0.157869f $ **FLOATING
C49 x2/a_761_289# 0 0.120848f $ **FLOATING
C50 x2/a_193_47# 0 0.272684f
C51 x2/a_27_47# 0 0.495665f
C52 Qb2 0 0.335611f
C53 x3/a_1847_47# 0 0.132899f
C54 x3/a_1108_47# 0 0.126214f $ **FLOATING
C55 x3/a_1283_21# 0 0.478567f $ **FLOATING
C56 x3/a_543_47# 0 0.157869f $ **FLOATING
C57 x3/a_761_289# 0 0.120848f $ **FLOATING
C58 x3/a_193_47# 0 0.272684f
C59 x3/a_27_47# 0 0.495665f
C60 doneb 0 1.588155f
C61 clkin 0 0.301494f
C62 x1/a_40_47# 0 0.230074f $ **FLOATING
.ends

.subckt sky130_fd_sc_hd__a221o_1 A1 A2 B1 B2 C1 VGND VNB VPB VPWR X
X0 a_465_47# A1 a_27_47# VNB sky130_fd_pr__nfet_01v8 ad=0.10725 pd=0.98 as=0.169 ps=1.82 w=0.65 l=0.15
X1 X a_27_47# VPWR VPB sky130_fd_pr__pfet_01v8_hvt ad=0.26 pd=2.52 as=0.1575 ps=1.315 w=1 l=0.15
X2 a_109_297# B1 a_193_297# VPB sky130_fd_pr__pfet_01v8_hvt ad=0.26 pd=2.52 as=0.135 ps=1.27 w=1 l=0.15
X3 a_193_297# B2 a_109_297# VPB sky130_fd_pr__pfet_01v8_hvt ad=0.135 pd=1.27 as=0.135 ps=1.27 w=1 l=0.15
X4 X a_27_47# VGND VNB sky130_fd_pr__nfet_01v8 ad=0.169 pd=1.82 as=0.102375 ps=0.965 w=0.65 l=0.15
X5 a_205_47# B2 VGND VNB sky130_fd_pr__nfet_01v8 ad=0.06825 pd=0.86 as=0.10725 ps=0.98 w=0.65 l=0.15
X6 VPWR A2 a_193_297# VPB sky130_fd_pr__pfet_01v8_hvt ad=0.1575 pd=1.315 as=0.165 ps=1.33 w=1 l=0.15
X7 a_193_297# A1 VPWR VPB sky130_fd_pr__pfet_01v8_hvt ad=0.165 pd=1.33 as=0.26 ps=2.52 w=1 l=0.15
X8 a_27_47# B1 a_205_47# VNB sky130_fd_pr__nfet_01v8 ad=0.169 pd=1.82 as=0.06825 ps=0.86 w=0.65 l=0.15
X9 a_109_297# C1 a_27_47# VPB sky130_fd_pr__pfet_01v8_hvt ad=0.135 pd=1.27 as=0.26 ps=2.52 w=1 l=0.15
X10 VGND C1 a_27_47# VNB sky130_fd_pr__nfet_01v8 ad=0.10725 pd=0.98 as=0.169 ps=1.82 w=0.65 l=0.15
X11 VGND A2 a_465_47# VNB sky130_fd_pr__nfet_01v8 ad=0.102375 pd=0.965 as=0.10725 ps=0.98 w=0.65 l=0.15
C0 a_193_297# a_27_47# 0.143754f
C1 a_193_297# VPWR 0.169243f
C2 a_27_47# VGND 0.395423f
C3 a_27_47# A2 0.152957f
C4 a_109_297# VPWR 0.150131f
C5 B1 a_27_47# 0.11237f
C6 VGND VNB 0.437277f
C7 VPWR VNB 0.363959f
C8 A1 VNB 0.105908f
C9 B1 VNB 0.108471f
C10 C1 VNB 0.139233f
C11 VPB VNB 0.781956f
C12 a_27_47# VNB 0.216317f
.ends

.subckt sky130_fd_sc_hd__einvn_0 A TE_B VGND VNB VPB VPWR Z a_30_47#
X0 VGND TE_B a_30_47# VNB sky130_fd_pr__nfet_01v8 ad=0.07665 pd=0.785 as=0.1092 ps=1.36 w=0.42 l=0.15
X1 Z A a_215_369# VPB sky130_fd_pr__pfet_01v8_hvt ad=0.1664 pd=1.8 as=0.0672 ps=0.85 w=0.64 l=0.15
X2 a_215_369# TE_B VPWR VPB sky130_fd_pr__pfet_01v8_hvt ad=0.0672 pd=0.85 as=0.10855 ps=1.005 w=0.64 l=0.15
X3 a_215_47# a_30_47# VGND VNB sky130_fd_pr__nfet_01v8 ad=0.0441 pd=0.63 as=0.07665 ps=0.785 w=0.42 l=0.15
X4 Z A a_215_47# VNB sky130_fd_pr__nfet_01v8 ad=0.1092 pd=1.36 as=0.0441 ps=0.63 w=0.42 l=0.15
X5 VPWR TE_B a_30_47# VPB sky130_fd_pr__pfet_01v8_hvt ad=0.10855 pd=1.005 as=0.1092 ps=1.36 w=0.42 l=0.15
C0 Z A 0.188537f
C1 a_30_47# VPWR 0.116195f
C2 a_30_47# VGND 0.124215f
C3 TE_B VPB 0.136539f
C4 a_30_47# Z 0.133869f
C5 a_30_47# TE_B 0.265521f
C6 VGND VNB 0.251746f
C7 VPWR VNB 0.213824f
C8 A VNB 0.206932f
C9 TE_B VNB 0.220088f
C10 VPB VNB 0.427572f
C11 a_30_47# VNB 0.145562f
.ends

.subckt sky130_fd_pr__nfet_01v8_AHZR5K a_n458_n50# a_n400_n138# a_n560_n224# a_400_n50#
X0 a_400_n50# a_n400_n138# a_n458_n50# a_n560_n224# sky130_fd_pr__nfet_01v8 ad=0.145 pd=1.58 as=0.145 ps=1.58 w=0.5 l=4
C0 a_n400_n138# a_n560_n224# 2.37082f
.ends

.subckt ripl_dly_clk_buf clkin stby x1/x2/a_27_47# x2/x2/a_27_47# x1/x3/a_27_47# x2/x3/a_27_47#
+ x2/Qb1 x1/Qb1 x1/x4/a_27_47# x2/x4/a_27_47# x2/Qb2 ena_done_b stby_done_b clk_disable
+ clkout ena x1/Qb2 dvss x5/VPB stby_b x1/x2/a_193_47#
Xx1 clkin ena_done_b x1/x2/a_27_47# x1/Qb2 x1/x3/a_27_47# ena x1/x2/a_193_47# x1/x4/a_27_47#
+ dvss x1/Qb1 x5/VPB ripple_dly_4
Xx2 clkin stby_done_b x2/x2/a_27_47# x2/Qb2 x2/x3/a_27_47# stby_b x2/x2/a_193_47#
+ x2/x4/a_27_47# dvss x2/Qb1 x5/VPB ripple_dly_4
Xx3 stby_b stby_done_b ena ena_done_b stby dvss dvss x5/VPB x5/VPB clk_disable sky130_fd_sc_hd__a221o_1
Xx5 clkin clk_disable dvss dvss x5/VPB x5/VPB clkout x5/a_30_47# sky130_fd_sc_hd__einvn_0
XXM3 clkout clk_disable dvss dvss sky130_fd_pr__nfet_01v8_AHZR5K
C0 stby_done_b clkout 0.187099f
C1 stby_b ena 0.664996f
C2 clk_disable clkin 0.106197f
C3 stby_done_b x5/VPB 0.451845f
C4 dvss stby 0.278618f
C5 clk_disable x5/a_30_47# 0.15444f
C6 dvss stby_b 0.136205f
C7 ena ena_done_b 0.394686f
C8 dvss clk_disable 0.410059f
C9 stby_done_b stby_b 0.449182f
C10 clk_disable clkout 0.458364f
C11 stby_b x5/VPB 0.337201f
C12 stby_done_b clk_disable 0.72273f